/*---------------------------------------------------------------------------*\
  =========                 |
  \\      /  F ield         | OpenFOAM: The Open Source CFD Toolbox
   \\    /   O peration     | Website:  https://openfoam.org
    \\  /    A nd           | Version:  dev
     \\/     M anipulation  |
\*---------------------------------------------------------------------------*/
Build  : dev-0c31e465bec2
Exec   : turbulentExnerFoamAdvective
Date   : Jan 09 2019
Time   : 15:03:08
Host   : "daniel-XPS-15-9560"
PID    : 22009
I/O    : uncollated
Case   : /media/daniel/STORAGE/OpenFOAM-run/danRun/partitionedTurbulentFoam/RayleighBenard/noTransferViscous_cyclic/zeroViscosity_turbExFmAdv
nProcs : 1
sigFpe : Enabling floating point exception trapping (FOAM_SIGFPE).
fileModificationChecking : Monitoring run-time modified files using timeStampMaster (fileModificationSkew 10)
allowSystemOperations : Allowing user-supplied system call operations

// * * * * * * * * * * * * * * * * * * * * * * * * * * * * * * * * * * * * * //
Create time

Create mesh for time = 0


Reading environmentalProperties
Reading thermophysical properties

Cp = 1005 speedSound = speedSound [0 1 -1 0 0 0 0] 347.745 kappa = kappa [0 0 0 0 0 0 0] 0.286267 R = 287.698 RR = 8314.47 Cv = Cv [0 2 -2 -1 0 0 0] 717.302
Maximum acousitic Courant number = ((max(deltaCoeffs)*deltaT)*speedSound) [0 0 0 0 0 0 0] 347.745
Making the boundary faces orthogonal
Reading thermophysical properties

Selecting thermodynamics package 
{
    type            heRhoThermo;
    mixture         pureMixture;
    transport       const;
    thermo          hConst;
    equationOfState perfectGas;
    specie          specie;
    energy          sensibleEnthalpy;
}

Reading field Uf

Reading field Exner

Reading field theta

Maximum sponge value = 0
Creating field rho

Calculating face flux fields volFlux and phi

Creating turbulence model

Selecting turbulence model type laminar
Selecting laminar stress model Stokes
Initialising total energy file energy.dat

KE dimensions = [1 -1 -2 0 0 0 0]
internalEnergy dimensions = [1 -1 -2 0 0 0 0]
potentialEnergy dimensions = [1 -1 -2 0 0 0 0]
Vtot = sum(V) [0 3 0 0 0 0 0] 1.04
KEInitTot = (domainIntegrate(KE)|sum(V)) [1 -1 -2 0 0 0 0] 0
internalInitTot = (domainIntegrate(internalEnergy)|sum(V)) [1 -1 -2 0 0 0 0] 249310
potentialInitTot = (domainIntegrate(potentialEnergy)|sum(V)) [1 -1 -2 0 0 0 0] 5.68272

Starting time loop

Time = 0.01

Courant Number mean: 0 max: 0 max Ndt = 0.0700485
diagonal:  Solving for rho, Initial residual = 0, Final residual = 0, No Iterations 0
DILUPBiCGStab:  Solving for theta, Initial residual = 8.40375e-15, Final residual = 8.40375e-15, No Iterations 0
DICPCG:  Solving for Exner, Initial residual = 0.947527, Final residual = 0.0848068, No Iterations 13
DICPCG:  Solving for Exner, Initial residual = 0.336883, Final residual = 0.0309298, No Iterations 51
diagonal:  Solving for rho, Initial residual = 0, Final residual = 0, No Iterations 0
DILUPBiCGStab:  Solving for theta, Initial residual = 0.0198228, Final residual = 7.10021e-10, No Iterations 1
DICPCG:  Solving for Exner, Initial residual = 0.161449, Final residual = 0.0132248, No Iterations 21
DICPCG:  Solving for Exner, Initial residual = 0.0135947, Final residual = 9.44489e-07, No Iterations 191
time step continuity errors : sum local = 8.19322e-06, global = -4.25716e-07, cumulative = -4.25716e-07
Maximum rho difference fraction = 1.68969e-05
Heat error = -0.00017156
ExecutionTime = 4.15 s  ClockTime = 5 s

Time = 0.02

Courant Number mean: 0.0633282 max: 0.0711686 max Ndt = 0.0527806
diagonal:  Solving for rho, Initial residual = 0, Final residual = 0, No Iterations 0
DILUPBiCGStab:  Solving for theta, Initial residual = 0.020731, Final residual = 9.44341e-07, No Iterations 1
DICPCG:  Solving for Exner, Initial residual = 0.995935, Final residual = 0.0890581, No Iterations 21
DICPCG:  Solving for Exner, Initial residual = 0.0990003, Final residual = 0.00948084, No Iterations 98
diagonal:  Solving for rho, Initial residual = 0, Final residual = 0, No Iterations 0
DILUPBiCGStab:  Solving for theta, Initial residual = 0.00761259, Final residual = 2.53891e-07, No Iterations 1
DICPCG:  Solving for Exner, Initial residual = 0.110336, Final residual = 0.00971936, No Iterations 23
DICPCG:  Solving for Exner, Initial residual = 0.00943397, Final residual = 8.81627e-07, No Iterations 175
time step continuity errors : sum local = 1.04744e-05, global = 1.04744e-05, cumulative = 1.00487e-05
Maximum rho difference fraction = 1.9397e-05
Heat error = -0.000261843
ExecutionTime = 7.56 s  ClockTime = 8 s

Time = 0.03

Courant Number mean: 0.0310317 max: 0.0380577 max Ndt = 0.0533337
diagonal:  Solving for rho, Initial residual = 0, Final residual = 0, No Iterations 0
DILUPBiCGStab:  Solving for theta, Initial residual = 0.0119033, Final residual = 1.0725e-07, No Iterations 1
DICPCG:  Solving for Exner, Initial residual = 0.997811, Final residual = 0.0880401, No Iterations 21
DICPCG:  Solving for Exner, Initial residual = 0.0772103, Final residual = 0.00763787, No Iterations 127
diagonal:  Solving for rho, Initial residual = 0, Final residual = 0, No Iterations 0
DILUPBiCGStab:  Solving for theta, Initial residual = 0.00406224, Final residual = 4.17002e-09, No Iterations 1
DICPCG:  Solving for Exner, Initial residual = 0.115878, Final residual = 0.0089642, No Iterations 61
DICPCG:  Solving for Exner, Initial residual = 0.00992715, Final residual = 9.69904e-07, No Iterations 187
time step continuity errors : sum local = 1.61908e-05, global = 1.61908e-05, cumulative = 2.62395e-05
Maximum rho difference fraction = 3.02194e-05
Heat error = -0.000233052
ExecutionTime = 11.19 s  ClockTime = 12 s

Time = 0.04

Courant Number mean: 0.0244939 max: 0.0293154 max Ndt = 0.0535851
diagonal:  Solving for rho, Initial residual = 0, Final residual = 0, No Iterations 0
DILUPBiCGStab:  Solving for theta, Initial residual = 0.00532047, Final residual = 3.54412e-08, No Iterations 1
DICPCG:  Solving for Exner, Initial residual = 0.996434, Final residual = 0.0816347, No Iterations 21
DICPCG:  Solving for Exner, Initial residual = 0.129737, Final residual = 0.0110727, No Iterations 74
diagonal:  Solving for rho, Initial residual = 0, Final residual = 0, No Iterations 0
DILUPBiCGStab:  Solving for theta, Initial residual = 0.00249055, Final residual = 1.25749e-08, No Iterations 1
DICPCG:  Solving for Exner, Initial residual = 0.0976531, Final residual = 0.00849306, No Iterations 23
DICPCG:  Solving for Exner, Initial residual = 0.00875547, Final residual = 9.74916e-07, No Iterations 207
time step continuity errors : sum local = 2.13606e-06, global = 1.27055e-06, cumulative = 2.75101e-05
Maximum rho difference fraction = 5.7648e-06
Heat error = -0.000201132
ExecutionTime = 14.7 s  ClockTime = 16 s

Time = 0.05

Courant Number mean: 0.010684 max: 0.0134154 max Ndt = 0.053467
diagonal:  Solving for rho, Initial residual = 0, Final residual = 0, No Iterations 0
DILUPBiCGStab:  Solving for theta, Initial residual = 0.00461272, Final residual = 9.0011e-09, No Iterations 1
DICPCG:  Solving for Exner, Initial residual = 0.996654, Final residual = 0.0709665, No Iterations 18
DICPCG:  Solving for Exner, Initial residual = 0.048814, Final residual = 0.00444982, No Iterations 65
diagonal:  Solving for rho, Initial residual = 0, Final residual = 0, No Iterations 0
DILUPBiCGStab:  Solving for theta, Initial residual = 0.00141838, Final residual = 3.19574e-10, No Iterations 1
DICPCG:  Solving for Exner, Initial residual = 0.0400602, Final residual = 0.00339916, No Iterations 18
DICPCG:  Solving for Exner, Initial residual = 0.00330041, Final residual = 9.97902e-07, No Iterations 174
time step continuity errors : sum local = 5.57619e-06, global = -5.57619e-06, cumulative = 2.19339e-05
Maximum rho difference fraction = 9.98451e-06
Heat error = -0.000212884
ExecutionTime = 18.1 s  ClockTime = 19 s

Time = 0.06

Courant Number mean: 0.00665952 max: 0.00900212 max Ndt = 0.0533653
diagonal:  Solving for rho, Initial residual = 0, Final residual = 0, No Iterations 0
DILUPBiCGStab:  Solving for theta, Initial residual = 0.00152663, Final residual = 1.34521e-09, No Iterations 1
DICPCG:  Solving for Exner, Initial residual = 0.992485, Final residual = 0.0700775, No Iterations 18
DICPCG:  Solving for Exner, Initial residual = 0.0954358, Final residual = 0.00921984, No Iterations 54
diagonal:  Solving for rho, Initial residual = 0, Final residual = 0, No Iterations 0
DILUPBiCGStab:  Solving for theta, Initial residual = 0.000764754, Final residual = 9.54811e-10, No Iterations 1
DICPCG:  Solving for Exner, Initial residual = 0.0221637, Final residual = 0.00196, No Iterations 120
DICPCG:  Solving for Exner, Initial residual = 0.00193599, Final residual = 9.45951e-07, No Iterations 173
time step continuity errors : sum local = 2.14905e-06, global = 2.14905e-06, cumulative = 2.40829e-05
Maximum rho difference fraction = 3.00964e-06
Heat error = -0.000222385
ExecutionTime = 21.89 s  ClockTime = 23 s

Time = 0.07

Courant Number mean: 0.00635916 max: 0.00815932 max Ndt = 0.053398
diagonal:  Solving for rho, Initial residual = 0, Final residual = 0, No Iterations 0
DILUPBiCGStab:  Solving for theta, Initial residual = 0.00183931, Final residual = 1.17141e-09, No Iterations 1
DICPCG:  Solving for Exner, Initial residual = 0.999883, Final residual = 0.0875113, No Iterations 18
DICPCG:  Solving for Exner, Initial residual = 0.0679505, Final residual = 0.00521412, No Iterations 43
diagonal:  Solving for rho, Initial residual = 0, Final residual = 0, No Iterations 0
DILUPBiCGStab:  Solving for theta, Initial residual = 0.00059368, Final residual = 2.15641e-10, No Iterations 1
DICPCG:  Solving for Exner, Initial residual = 0.0209634, Final residual = 0.0020531, No Iterations 21
DICPCG:  Solving for Exner, Initial residual = 0.00205949, Final residual = 9.4034e-07, No Iterations 170
time step continuity errors : sum local = 2.58906e-06, global = 2.56206e-06, cumulative = 2.6645e-05
Maximum rho difference fraction = 5.66644e-06
Heat error = -0.000221531
ExecutionTime = 25.5 s  ClockTime = 27 s

Time = 0.08

Courant Number mean: 0.00414178 max: 0.00569495 max Ndt = 0.0534355
diagonal:  Solving for rho, Initial residual = 0, Final residual = 0, No Iterations 0
DILUPBiCGStab:  Solving for theta, Initial residual = 0.000470476, Final residual = 2.39433e-10, No Iterations 1
DICPCG:  Solving for Exner, Initial residual = 0.999897, Final residual = 0.0765663, No Iterations 18
DICPCG:  Solving for Exner, Initial residual = 0.104402, Final residual = 0.00722208, No Iterations 43
diagonal:  Solving for rho, Initial residual = 0, Final residual = 0, No Iterations 0
DILUPBiCGStab:  Solving for theta, Initial residual = 0.000259223, Final residual = 1.35343e-10, No Iterations 1
DICPCG:  Solving for Exner, Initial residual = 0.0154069, Final residual = 0.00131623, No Iterations 133
DICPCG:  Solving for Exner, Initial residual = 0.00130606, Final residual = 9.03173e-07, No Iterations 172
time step continuity errors : sum local = 3.63409e-06, global = -3.63409e-06, cumulative = 2.30109e-05
Maximum rho difference fraction = 5.04407e-06
Heat error = -0.000221464
ExecutionTime = 29.19 s  ClockTime = 31 s

Time = 0.09

Courant Number mean: 0.00120656 max: 0.0024901 max Ndt = 0.0534286
diagonal:  Solving for rho, Initial residual = 0, Final residual = 0, No Iterations 0
DILUPBiCGStab:  Solving for theta, Initial residual = 0.000638868, Final residual = 3.18896e-10, No Iterations 1
DICPCG:  Solving for Exner, Initial residual = 0.9999, Final residual = 0.0988884, No Iterations 16
DICPCG:  Solving for Exner, Initial residual = 0.0756518, Final residual = 0.0074317, No Iterations 38
diagonal:  Solving for rho, Initial residual = 0, Final residual = 0, No Iterations 0
DILUPBiCGStab:  Solving for theta, Initial residual = 0.00020738, Final residual = 1.43186e-10, No Iterations 1
DICPCG:  Solving for Exner, Initial residual = 0.00861986, Final residual = 0.000846933, No Iterations 108
DICPCG:  Solving for Exner, Initial residual = 0.000841447, Final residual = 7.69013e-07, No Iterations 169
time step continuity errors : sum local = 1.66656e-06, global = -1.66656e-06, cumulative = 2.13443e-05
Maximum rho difference fraction = 2.20645e-06
Heat error = -0.000219194
ExecutionTime = 32.68 s  ClockTime = 35 s

Time = 0.1

Courant Number mean: 0.000904107 max: 0.00189722 max Ndt = 0.0534209
diagonal:  Solving for rho, Initial residual = 0, Final residual = 0, No Iterations 0
DILUPBiCGStab:  Solving for theta, Initial residual = 8.40636e-05, Final residual = 4.79544e-11, No Iterations 1
DICPCG:  Solving for Exner, Initial residual = 0.999859, Final residual = 0.0981819, No Iterations 16
DICPCG:  Solving for Exner, Initial residual = 0.129929, Final residual = 0.0128299, No Iterations 41
diagonal:  Solving for rho, Initial residual = 0, Final residual = 0, No Iterations 0
DILUPBiCGStab:  Solving for theta, Initial residual = 0.000116017, Final residual = 1.50919e-10, No Iterations 1
DICPCG:  Solving for Exner, Initial residual = 0.0106437, Final residual = 0.000971099, No Iterations 133
DICPCG:  Solving for Exner, Initial residual = 0.000966735, Final residual = 9.71799e-07, No Iterations 168
time step continuity errors : sum local = 4.29067e-06, global = 4.29067e-06, cumulative = 2.5635e-05
Maximum rho difference fraction = 5.94204e-06
Heat error = -0.000215446
ExecutionTime = 36.38 s  ClockTime = 39 s

Time = 0.11

Courant Number mean: 0.00202867 max: 0.00348551 max Ndt = 0.0534242
diagonal:  Solving for rho, Initial residual = 0, Final residual = 0, No Iterations 0
DILUPBiCGStab:  Solving for theta, Initial residual = 0.000288778, Final residual = 1.60308e-10, No Iterations 1
DICPCG:  Solving for Exner, Initial residual = 0.999897, Final residual = 0.0980639, No Iterations 16
DICPCG:  Solving for Exner, Initial residual = 0.0763219, Final residual = 0.00701018, No Iterations 30
diagonal:  Solving for rho, Initial residual = 0, Final residual = 0, No Iterations 0
DILUPBiCGStab:  Solving for theta, Initial residual = 0.000104045, Final residual = 1.20658e-10, No Iterations 1
DICPCG:  Solving for Exner, Initial residual = 0.00789694, Final residual = 0.000777483, No Iterations 126
DICPCG:  Solving for Exner, Initial residual = 0.000775922, Final residual = 9.18082e-07, No Iterations 167
time step continuity errors : sum local = 1.73251e-06, global = 1.73251e-06, cumulative = 2.73675e-05
Maximum rho difference fraction = 3.15653e-06
Heat error = -0.000218287
ExecutionTime = 39.98 s  ClockTime = 43 s

Time = 0.12

Courant Number mean: 0.00170358 max: 0.00268984 max Ndt = 0.0534274
diagonal:  Solving for rho, Initial residual = 0, Final residual = 0, No Iterations 0
DILUPBiCGStab:  Solving for theta, Initial residual = 5.27262e-05, Final residual = 8.869e-11, No Iterations 1
DICPCG:  Solving for Exner, Initial residual = 0.999932, Final residual = 0.0921079, No Iterations 16
DICPCG:  Solving for Exner, Initial residual = 0.120999, Final residual = 0.0101358, No Iterations 67
diagonal:  Solving for rho, Initial residual = 0, Final residual = 0, No Iterations 0
DILUPBiCGStab:  Solving for theta, Initial residual = 3.49853e-05, Final residual = 7.50711e-11, No Iterations 1
DICPCG:  Solving for Exner, Initial residual = 0.00905112, Final residual = 0.00087449, No Iterations 112
DICPCG:  Solving for Exner, Initial residual = 0.000870872, Final residual = 9.4724e-07, No Iterations 165
time step continuity errors : sum local = 3.43635e-06, global = -3.43635e-06, cumulative = 2.39311e-05
Maximum rho difference fraction = 4.06929e-06
Heat error = -0.000222641
ExecutionTime = 43.5 s  ClockTime = 46 s

Time = 0.13

Courant Number mean: 0.00103744 max: 0.00203602 max Ndt = 0.053431
diagonal:  Solving for rho, Initial residual = 0, Final residual = 0, No Iterations 0
DILUPBiCGStab:  Solving for theta, Initial residual = 6.33885e-05, Final residual = 7.81007e-11, No Iterations 1
DICPCG:  Solving for Exner, Initial residual = 0.99994, Final residual = 0.0859637, No Iterations 16
DICPCG:  Solving for Exner, Initial residual = 0.067491, Final residual = 0.00669261, No Iterations 35
diagonal:  Solving for rho, Initial residual = 0, Final residual = 0, No Iterations 0
DILUPBiCGStab:  Solving for theta, Initial residual = 2.28746e-05, Final residual = 5.53161e-11, No Iterations 1
DICPCG:  Solving for Exner, Initial residual = 0.00531264, Final residual = 0.000465712, No Iterations 105
DICPCG:  Solving for Exner, Initial residual = 0.000464228, Final residual = 8.14973e-07, No Iterations 165
time step continuity errors : sum local = 6.76256e-07, global = -6.76256e-07, cumulative = 2.32549e-05
Maximum rho difference fraction = 1.40815e-06
Heat error = -0.000219688
ExecutionTime = 46.97 s  ClockTime = 50 s

Time = 0.14

Courant Number mean: 0.00130892 max: 0.00211156 max Ndt = 0.0534302
diagonal:  Solving for rho, Initial residual = 0, Final residual = 0, No Iterations 0
DILUPBiCGStab:  Solving for theta, Initial residual = 4.30792e-05, Final residual = 4.25951e-11, No Iterations 1
DICPCG:  Solving for Exner, Initial residual = 0.999954, Final residual = 0.0839355, No Iterations 16
DICPCG:  Solving for Exner, Initial residual = 0.109635, Final residual = 0.00945545, No Iterations 67
diagonal:  Solving for rho, Initial residual = 0, Final residual = 0, No Iterations 0
DILUPBiCGStab:  Solving for theta, Initial residual = 4.11577e-05, Final residual = 2.17191e-11, No Iterations 1
DICPCG:  Solving for Exner, Initial residual = 0.00806365, Final residual = 0.000647707, No Iterations 135
DICPCG:  Solving for Exner, Initial residual = 0.000646473, Final residual = 9.62448e-07, No Iterations 166
time step continuity errors : sum local = 2.84181e-06, global = 2.84181e-06, cumulative = 2.60967e-05
Maximum rho difference fraction = 3.44976e-06
Heat error = -0.000216447
ExecutionTime = 50.53 s  ClockTime = 54 s

Time = 0.15

Courant Number mean: 0.00116038 max: 0.00197045 max Ndt = 0.0534308
diagonal:  Solving for rho, Initial residual = 0, Final residual = 0, No Iterations 0
DILUPBiCGStab:  Solving for theta, Initial residual = 6.85563e-05, Final residual = 1.87022e-11, No Iterations 1
DICPCG:  Solving for Exner, Initial residual = 0.999964, Final residual = 0.0825736, No Iterations 16
DICPCG:  Solving for Exner, Initial residual = 0.0653156, Final residual = 0.00622783, No Iterations 35
diagonal:  Solving for rho, Initial residual = 0, Final residual = 0, No Iterations 0
DILUPBiCGStab:  Solving for theta, Initial residual = 3.27843e-05, Final residual = 2.71084e-11, No Iterations 1
DICPCG:  Solving for Exner, Initial residual = 0.00392752, Final residual = 0.000370307, No Iterations 60
DICPCG:  Solving for Exner, Initial residual = 0.000369548, Final residual = 9.30133e-07, No Iterations 163
time step continuity errors : sum local = 3.133e-07, global = 5.09269e-08, cumulative = 2.61476e-05
Maximum rho difference fraction = 9.44957e-07
Heat error = -0.000219348
ExecutionTime = 53.95 s  ClockTime = 57 s

Time = 0.16

Courant Number mean: 0.00133115 max: 0.00201633 max Ndt = 0.0534327
diagonal:  Solving for rho, Initial residual = 0, Final residual = 0, No Iterations 0
DILUPBiCGStab:  Solving for theta, Initial residual = 3.07107e-05, Final residual = 1.53602e-11, No Iterations 1
DICPCG:  Solving for Exner, Initial residual = 0.999975, Final residual = 0.0802313, No Iterations 16
DICPCG:  Solving for Exner, Initial residual = 0.104244, Final residual = 0.00882393, No Iterations 67
diagonal:  Solving for rho, Initial residual = 0, Final residual = 0, No Iterations 0
DILUPBiCGStab:  Solving for theta, Initial residual = 1.96984e-05, Final residual = 2.83341e-11, No Iterations 1
DICPCG:  Solving for Exner, Initial residual = 0.00514436, Final residual = 0.000506767, No Iterations 141
DICPCG:  Solving for Exner, Initial residual = 0.000505888, Final residual = 9.88649e-07, No Iterations 134
time step continuity errors : sum local = 2.4668e-06, global = -2.4668e-06, cumulative = 2.36808e-05
Maximum rho difference fraction = 3.5078e-06
Heat error = -0.000221775
ExecutionTime = 57.47 s  ClockTime = 61 s

Time = 0.17

Courant Number mean: 0.000957649 max: 0.00170336 max Ndt = 0.053434
diagonal:  Solving for rho, Initial residual = 0, Final residual = 0, No Iterations 0
DILUPBiCGStab:  Solving for theta, Initial residual = 1.96437e-05, Final residual = 2.07869e-11, No Iterations 1
DICPCG:  Solving for Exner, Initial residual = 0.999952, Final residual = 0.0776848, No Iterations 16
DICPCG:  Solving for Exner, Initial residual = 0.0618125, Final residual = 0.00459413, No Iterations 41
diagonal:  Solving for rho, Initial residual = 0, Final residual = 0, No Iterations 0
DILUPBiCGStab:  Solving for theta, Initial residual = 2.09636e-05, Final residual = 2.84016e-11, No Iterations 1
DICPCG:  Solving for Exner, Initial residual = 0.003464, Final residual = 0.000287885, No Iterations 96
DICPCG:  Solving for Exner, Initial residual = 0.000287502, Final residual = 9.4891e-07, No Iterations 157
time step continuity errors : sum local = 4.71416e-07, global = 4.39078e-07, cumulative = 2.41199e-05
Maximum rho difference fraction = 1.13063e-06
Heat error = -0.000218848
ExecutionTime = 60.92 s  ClockTime = 65 s

Time = 0.18

Courant Number mean: 0.00133934 max: 0.00211915 max Ndt = 0.053438
diagonal:  Solving for rho, Initial residual = 0, Final residual = 0, No Iterations 0
DILUPBiCGStab:  Solving for theta, Initial residual = 2.92661e-05, Final residual = 2.61725e-11, No Iterations 1
DICPCG:  Solving for Exner, Initial residual = 0.99997, Final residual = 0.0764087, No Iterations 16
DICPCG:  Solving for Exner, Initial residual = 0.0988134, Final residual = 0.00970305, No Iterations 66
diagonal:  Solving for rho, Initial residual = 0, Final residual = 0, No Iterations 0
DILUPBiCGStab:  Solving for theta, Initial residual = 2.01114e-05, Final residual = 6.35132e-11, No Iterations 1
DICPCG:  Solving for Exner, Initial residual = 0.0059855, Final residual = 0.000583299, No Iterations 137
DICPCG:  Solving for Exner, Initial residual = 0.000581927, Final residual = 8.65735e-07, No Iterations 166
time step continuity errors : sum local = 2.16731e-06, global = 2.16731e-06, cumulative = 2.62872e-05
Maximum rho difference fraction = 3.06343e-06
Heat error = -0.00021714
ExecutionTime = 64.5 s  ClockTime = 69 s

Time = 0.19

Courant Number mean: 0.00111056 max: 0.00181065 max Ndt = 0.0534411
diagonal:  Solving for rho, Initial residual = 0, Final residual = 0, No Iterations 0
DILUPBiCGStab:  Solving for theta, Initial residual = 2.81771e-05, Final residual = 5.23528e-11, No Iterations 1
DICPCG:  Solving for Exner, Initial residual = 0.999962, Final residual = 0.0753027, No Iterations 16
DICPCG:  Solving for Exner, Initial residual = 0.0602573, Final residual = 0.00452785, No Iterations 41
diagonal:  Solving for rho, Initial residual = 0, Final residual = 0, No Iterations 0
DILUPBiCGStab:  Solving for theta, Initial residual = 2.05145e-05, Final residual = 2.38339e-11, No Iterations 1
DICPCG:  Solving for Exner, Initial residual = 0.00350309, Final residual = 0.00034239, No Iterations 136
DICPCG:  Solving for Exner, Initial residual = 0.000342063, Final residual = 9.53553e-07, No Iterations 165
time step continuity errors : sum local = 8.0163e-07, global = -8.01492e-07, cumulative = 2.54857e-05
Maximum rho difference fraction = 2.09171e-06
Heat error = -0.000220134
ExecutionTime = 68.11 s  ClockTime = 72 s

Time = 0.2

Courant Number mean: 0.00124079 max: 0.00203225 max Ndt = 0.0534432
diagonal:  Solving for rho, Initial residual = 0, Final residual = 0, No Iterations 0
DILUPBiCGStab:  Solving for theta, Initial residual = 2.45564e-05, Final residual = 3.83249e-11, No Iterations 1
DICPCG:  Solving for Exner, Initial residual = 0.999981, Final residual = 0.0740979, No Iterations 16
DICPCG:  Solving for Exner, Initial residual = 0.0955637, Final residual = 0.00941278, No Iterations 64
diagonal:  Solving for rho, Initial residual = 0, Final residual = 0, No Iterations 0
DILUPBiCGStab:  Solving for theta, Initial residual = 2.19147e-05, Final residual = 9.20199e-12, No Iterations 1
DICPCG:  Solving for Exner, Initial residual = 0.00552133, Final residual = 0.000513944, No Iterations 134
DICPCG:  Solving for Exner, Initial residual = 0.000513171, Final residual = 8.99519e-07, No Iterations 167
time step continuity errors : sum local = 2.00455e-06, global = -2.00455e-06, cumulative = 2.34812e-05
Maximum rho difference fraction = 3.30479e-06
Heat error = -0.000221343
ExecutionTime = 71.66 s  ClockTime = 76 s

Time = 0.21

Courant Number mean: 0.00120321 max: 0.00208274 max Ndt = 0.0534439
diagonal:  Solving for rho, Initial residual = 0, Final residual = 0, No Iterations 0
DILUPBiCGStab:  Solving for theta, Initial residual = 2.96414e-05, Final residual = 6.96653e-12, No Iterations 1
DICPCG:  Solving for Exner, Initial residual = 0.999924, Final residual = 0.0725033, No Iterations 16
DICPCG:  Solving for Exner, Initial residual = 0.0582145, Final residual = 0.00435722, No Iterations 41
diagonal:  Solving for rho, Initial residual = 0, Final residual = 0, No Iterations 0
DILUPBiCGStab:  Solving for theta, Initial residual = 2.12835e-05, Final residual = 6.37537e-12, No Iterations 1
DICPCG:  Solving for Exner, Initial residual = 0.00386359, Final residual = 0.000371656, No Iterations 135
DICPCG:  Solving for Exner, Initial residual = 0.000371409, Final residual = 9.5813e-07, No Iterations 166
time step continuity errors : sum local = 1.1404e-06, global = 1.11279e-06, cumulative = 2.4594e-05
Maximum rho difference fraction = 2.25398e-06
Heat error = -0.000218218
ExecutionTime = 75.4 s  ClockTime = 80 s

Time = 0.22

Courant Number mean: 0.00114289 max: 0.00196755 max Ndt = 0.0534445
diagonal:  Solving for rho, Initial residual = 0, Final residual = 0, No Iterations 0
DILUPBiCGStab:  Solving for theta, Initial residual = 2.67978e-05, Final residual = 7.86979e-12, No Iterations 1
DICPCG:  Solving for Exner, Initial residual = 0.999991, Final residual = 0.0718932, No Iterations 16
DICPCG:  Solving for Exner, Initial residual = 0.0925114, Final residual = 0.0091542, No Iterations 66
diagonal:  Solving for rho, Initial residual = 0, Final residual = 0, No Iterations 0
DILUPBiCGStab:  Solving for theta, Initial residual = 1.67503e-05, Final residual = 3.15406e-11, No Iterations 1
DICPCG:  Solving for Exner, Initial residual = 0.00555928, Final residual = 0.00053646, No Iterations 132
DICPCG:  Solving for Exner, Initial residual = 0.000535616, Final residual = 9.427e-07, No Iterations 167
time step continuity errors : sum local = 1.82973e-06, global = 1.82973e-06, cumulative = 2.64237e-05
Maximum rho difference fraction = 2.35849e-06
Heat error = -0.000217479
ExecutionTime = 79.13 s  ClockTime = 84 s

Time = 0.23

Courant Number mean: 0.00134981 max: 0.00220692 max Ndt = 0.0534486
diagonal:  Solving for rho, Initial residual = 0, Final residual = 0, No Iterations 0
DILUPBiCGStab:  Solving for theta, Initial residual = 2.04199e-05, Final residual = 2.74442e-11, No Iterations 1
DICPCG:  Solving for Exner, Initial residual = 0.999955, Final residual = 0.0707941, No Iterations 16
DICPCG:  Solving for Exner, Initial residual = 0.0569905, Final residual = 0.00455048, No Iterations 41
diagonal:  Solving for rho, Initial residual = 0, Final residual = 0, No Iterations 0
DILUPBiCGStab:  Solving for theta, Initial residual = 1.74295e-05, Final residual = 1.34637e-11, No Iterations 1
DICPCG:  Solving for Exner, Initial residual = 0.00381461, Final residual = 0.000323505, No Iterations 132
DICPCG:  Solving for Exner, Initial residual = 0.000323396, Final residual = 9.73179e-07, No Iterations 165
time step continuity errors : sum local = 1.42109e-06, global = -1.41255e-06, cumulative = 2.50112e-05
Maximum rho difference fraction = 3.44214e-06
Heat error = -0.000220743
ExecutionTime = 82.7 s  ClockTime = 88 s

Time = 0.24

Courant Number mean: 0.000870714 max: 0.00145484 max Ndt = 0.0534523
diagonal:  Solving for rho, Initial residual = 0, Final residual = 0, No Iterations 0
DILUPBiCGStab:  Solving for theta, Initial residual = 2.04086e-05, Final residual = 1.46419e-11, No Iterations 1
DICPCG:  Solving for Exner, Initial residual = 0.999977, Final residual = 0.0700076, No Iterations 16
DICPCG:  Solving for Exner, Initial residual = 0.0898314, Final residual = 0.00848559, No Iterations 69
diagonal:  Solving for rho, Initial residual = 0, Final residual = 0, No Iterations 0
DILUPBiCGStab:  Solving for theta, Initial residual = 1.34916e-05, Final residual = 1.94786e-11, No Iterations 1
DICPCG:  Solving for Exner, Initial residual = 0.00476976, Final residual = 0.000448468, No Iterations 98
DICPCG:  Solving for Exner, Initial residual = 0.00044771, Final residual = 8.95297e-07, No Iterations 158
time step continuity errors : sum local = 1.68886e-06, global = -1.68886e-06, cumulative = 2.33223e-05
Maximum rho difference fraction = 2.3166e-06
Heat error = -0.00022104
ExecutionTime = 86.29 s  ClockTime = 92 s

Time = 0.25

Courant Number mean: 0.00148088 max: 0.0024347 max Ndt = 0.0534516
diagonal:  Solving for rho, Initial residual = 0, Final residual = 0, No Iterations 0
DILUPBiCGStab:  Solving for theta, Initial residual = 1.97915e-05, Final residual = 1.74646e-11, No Iterations 1
DICPCG:  Solving for Exner, Initial residual = 0.999933, Final residual = 0.0687724, No Iterations 16
DICPCG:  Solving for Exner, Initial residual = 0.0554382, Final residual = 0.00522482, No Iterations 41
diagonal:  Solving for rho, Initial residual = 0, Final residual = 0, No Iterations 0
DILUPBiCGStab:  Solving for theta, Initial residual = 1.86194e-05, Final residual = 3.89913e-11, No Iterations 1
DICPCG:  Solving for Exner, Initial residual = 0.00317294, Final residual = 0.000290853, No Iterations 129
DICPCG:  Solving for Exner, Initial residual = 0.000290931, Final residual = 9.85725e-07, No Iterations 157
time step continuity errors : sum local = 1.82206e-06, global = 1.74904e-06, cumulative = 2.50713e-05
Maximum rho difference fraction = 3.54513e-06
Heat error = -0.000217626
ExecutionTime = 90.14 s  ClockTime = 96 s

Time = 0.26

Courant Number mean: 0.000463873 max: 0.00121913 max Ndt = 0.053453
diagonal:  Solving for rho, Initial residual = 0, Final residual = 0, No Iterations 0
DILUPBiCGStab:  Solving for theta, Initial residual = 2.10176e-05, Final residual = 3.54856e-11, No Iterations 1
DICPCG:  Solving for Exner, Initial residual = 0.999971, Final residual = 0.0680124, No Iterations 16
DICPCG:  Solving for Exner, Initial residual = 0.0870922, Final residual = 0.0085618, No Iterations 69
diagonal:  Solving for rho, Initial residual = 0, Final residual = 0, No Iterations 0
DILUPBiCGStab:  Solving for theta, Initial residual = 1.55367e-05, Final residual = 2.88829e-11, No Iterations 1
DICPCG:  Solving for Exner, Initial residual = 0.0045792, Final residual = 0.000385914, No Iterations 131
DICPCG:  Solving for Exner, Initial residual = 0.000385346, Final residual = 8.0764e-07, No Iterations 159
time step continuity errors : sum local = 1.58001e-06, global = 1.58001e-06, cumulative = 2.66513e-05
Maximum rho difference fraction = 2.29403e-06
Heat error = -0.000217822
ExecutionTime = 93.97 s  ClockTime = 100 s

Time = 0.27

Courant Number mean: 0.00164871 max: 0.00266218 max Ndt = 0.0534591
diagonal:  Solving for rho, Initial residual = 0, Final residual = 0, No Iterations 0
DILUPBiCGStab:  Solving for theta, Initial residual = 2.24546e-05, Final residual = 3.28059e-11, No Iterations 1
DICPCG:  Solving for Exner, Initial residual = 0.999962, Final residual = 0.0999106, No Iterations 15
DICPCG:  Solving for Exner, Initial residual = 0.0803959, Final residual = 0.00628314, No Iterations 42
diagonal:  Solving for rho, Initial residual = 0, Final residual = 0, No Iterations 0
DILUPBiCGStab:  Solving for theta, Initial residual = 1.4201e-05, Final residual = 1.28702e-11, No Iterations 1
DICPCG:  Solving for Exner, Initial residual = 0.00341637, Final residual = 0.000334034, No Iterations 129
DICPCG:  Solving for Exner, Initial residual = 0.000334224, Final residual = 9.79491e-07, No Iterations 158
time step continuity errors : sum local = 2.18165e-06, global = -2.03752e-06, cumulative = 2.46138e-05
Maximum rho difference fraction = 4.78301e-06
Heat error = -0.000221462
ExecutionTime = 97.71 s  ClockTime = 104 s

Time = 0.28

Courant Number mean: 0.000551311 max: 0.00114054 max Ndt = 0.0534606
diagonal:  Solving for rho, Initial residual = 0, Final residual = 0, No Iterations 0
DILUPBiCGStab:  Solving for theta, Initial residual = 1.55421e-05, Final residual = 1.59365e-11, No Iterations 1
DICPCG:  Solving for Exner, Initial residual = 0.999929, Final residual = 0.0988502, No Iterations 15
DICPCG:  Solving for Exner, Initial residual = 0.125657, Final residual = 0.0106748, No Iterations 42
diagonal:  Solving for rho, Initial residual = 0, Final residual = 0, No Iterations 0
DILUPBiCGStab:  Solving for theta, Initial residual = 1.82365e-05, Final residual = 3.64999e-11, No Iterations 1
DICPCG:  Solving for Exner, Initial residual = 0.00226392, Final residual = 0.000199968, No Iterations 110
DICPCG:  Solving for Exner, Initial residual = 0.000199918, Final residual = 9.40591e-07, No Iterations 155
time step continuity errors : sum local = 1.76086e-06, global = -1.76086e-06, cumulative = 2.2853e-05
Maximum rho difference fraction = 2.45348e-06
Heat error = -0.000221159
ExecutionTime = 101.29 s  ClockTime = 107 s

Time = 0.29

Courant Number mean: 0.00216086 max: 0.00331462 max Ndt = 0.0534577
diagonal:  Solving for rho, Initial residual = 0, Final residual = 0, No Iterations 0
DILUPBiCGStab:  Solving for theta, Initial residual = 2.45418e-05, Final residual = 3.98053e-11, No Iterations 1
DICPCG:  Solving for Exner, Initial residual = 0.999928, Final residual = 0.097727, No Iterations 15
DICPCG:  Solving for Exner, Initial residual = 0.0787972, Final residual = 0.0069502, No Iterations 74
diagonal:  Solving for rho, Initial residual = 0, Final residual = 0, No Iterations 0
DILUPBiCGStab:  Solving for theta, Initial residual = 1.26054e-05, Final residual = 4.78946e-11, No Iterations 1
DICPCG:  Solving for Exner, Initial residual = 0.00493835, Final residual = 0.000395895, No Iterations 125
DICPCG:  Solving for Exner, Initial residual = 0.000395018, Final residual = 8.42428e-07, No Iterations 158
time step continuity errors : sum local = 1.59672e-06, global = 1.59067e-06, cumulative = 2.44436e-05
Maximum rho difference fraction = 4.02586e-06
Heat error = -0.0002178
ExecutionTime = 104.9 s  ClockTime = 111 s

Time = 0.3

Courant Number mean: 0.000917262 max: 0.00175563 max Ndt = 0.053461
diagonal:  Solving for rho, Initial residual = 0, Final residual = 0, No Iterations 0
DILUPBiCGStab:  Solving for theta, Initial residual = 1.71342e-05, Final residual = 7.15543e-11, No Iterations 1
DICPCG:  Solving for Exner, Initial residual = 0.999927, Final residual = 0.0967915, No Iterations 15
DICPCG:  Solving for Exner, Initial residual = 0.123027, Final residual = 0.0114621, No Iterations 63
diagonal:  Solving for rho, Initial residual = 0, Final residual = 0, No Iterations 0
DILUPBiCGStab:  Solving for theta, Initial residual = 2.81412e-05, Final residual = 2.56453e-11, No Iterations 1
DICPCG:  Solving for Exner, Initial residual = 0.00679897, Final residual = 0.000651371, No Iterations 134
DICPCG:  Solving for Exner, Initial residual = 0.000651358, Final residual = 9.04105e-07, No Iterations 170
time step continuity errors : sum local = 1.29603e-06, global = 1.26644e-06, cumulative = 2.57101e-05
Maximum rho difference fraction = 2.53131e-06
Heat error = -0.00021814
ExecutionTime = 108.49 s  ClockTime = 115 s

Time = 0.31

Courant Number mean: 0.00205217 max: 0.00382685 max Ndt = 0.0534672
diagonal:  Solving for rho, Initial residual = 0, Final residual = 0, No Iterations 0
DILUPBiCGStab:  Solving for theta, Initial residual = 3.67109e-05, Final residual = 2.31466e-11, No Iterations 1
DICPCG:  Solving for Exner, Initial residual = 0.999906, Final residual = 0.0974902, No Iterations 15
DICPCG:  Solving for Exner, Initial residual = 0.0789357, Final residual = 0.0075488, No Iterations 63
diagonal:  Solving for rho, Initial residual = 0, Final residual = 0, No Iterations 0
DILUPBiCGStab:  Solving for theta, Initial residual = 3.54932e-05, Final residual = 4.39254e-11, No Iterations 1
DICPCG:  Solving for Exner, Initial residual = 0.00198324, Final residual = 0.000183717, No Iterations 130
DICPCG:  Solving for Exner, Initial residual = 0.000183813, Final residual = 9.92573e-07, No Iterations 73
time step continuity errors : sum local = 1.63947e-06, global = -1.55669e-06, cumulative = 2.41534e-05
Maximum rho difference fraction = 3.58971e-06
Heat error = -0.000220892
ExecutionTime = 111.93 s  ClockTime = 119 s

Time = 0.32

Courant Number mean: 0.00149464 max: 0.00301198 max Ndt = 0.0534663
diagonal:  Solving for rho, Initial residual = 0, Final residual = 0, No Iterations 0
DILUPBiCGStab:  Solving for theta, Initial residual = 4.63731e-05, Final residual = 6.72361e-11, No Iterations 1
DICPCG:  Solving for Exner, Initial residual = 0.999872, Final residual = 0.0985735, No Iterations 15
DICPCG:  Solving for Exner, Initial residual = 0.12567, Final residual = 0.0114368, No Iterations 39
diagonal:  Solving for rho, Initial residual = 0, Final residual = 0, No Iterations 0
DILUPBiCGStab:  Solving for theta, Initial residual = 2.17172e-05, Final residual = 8.86495e-11, No Iterations 1
DICPCG:  Solving for Exner, Initial residual = 0.00863046, Final residual = 0.000765208, No Iterations 70
DICPCG:  Solving for Exner, Initial residual = 0.000765013, Final residual = 9.93969e-07, No Iterations 166
time step continuity errors : sum local = 1.62284e-06, global = -1.13861e-06, cumulative = 2.30148e-05
Maximum rho difference fraction = 3.45049e-06
Heat error = -0.000220458
ExecutionTime = 115.33 s  ClockTime = 122 s

Time = 0.33

Courant Number mean: 0.00182563 max: 0.00315735 max Ndt = 0.0534599
diagonal:  Solving for rho, Initial residual = 0, Final residual = 0, No Iterations 0
DILUPBiCGStab:  Solving for theta, Initial residual = 1.93037e-05, Final residual = 2.21323e-11, No Iterations 1
DICPCG:  Solving for Exner, Initial residual = 0.999915, Final residual = 0.0978625, No Iterations 15
DICPCG:  Solving for Exner, Initial residual = 0.0793447, Final residual = 0.00785302, No Iterations 67
diagonal:  Solving for rho, Initial residual = 0, Final residual = 0, No Iterations 0
DILUPBiCGStab:  Solving for theta, Initial residual = 1.6555e-05, Final residual = 6.58052e-11, No Iterations 1
DICPCG:  Solving for Exner, Initial residual = 0.00490457, Final residual = 0.000457422, No Iterations 133
DICPCG:  Solving for Exner, Initial residual = 0.000457273, Final residual = 9.10196e-07, No Iterations 167
time step continuity errors : sum local = 1.15476e-06, global = 1.15476e-06, cumulative = 2.41695e-05
Maximum rho difference fraction = 2.19155e-06
Heat error = -0.000218287
ExecutionTime = 118.87 s  ClockTime = 126 s

Time = 0.34

Courant Number mean: 0.00169175 max: 0.00309878 max Ndt = 0.0534581
diagonal:  Solving for rho, Initial residual = 0, Final residual = 0, No Iterations 0
DILUPBiCGStab:  Solving for theta, Initial residual = 2.44181e-05, Final residual = 1.18704e-10, No Iterations 1
DICPCG:  Solving for Exner, Initial residual = 0.999813, Final residual = 0.0944295, No Iterations 15
DICPCG:  Solving for Exner, Initial residual = 0.119954, Final residual = 0.0108948, No Iterations 44
diagonal:  Solving for rho, Initial residual = 0, Final residual = 0, No Iterations 0
DILUPBiCGStab:  Solving for theta, Initial residual = 1.8107e-05, Final residual = 5.68015e-11, No Iterations 1
DICPCG:  Solving for Exner, Initial residual = 0.00765865, Final residual = 0.000699046, No Iterations 88
DICPCG:  Solving for Exner, Initial residual = 0.000697913, Final residual = 9.17853e-07, No Iterations 167
time step continuity errors : sum local = 9.39174e-07, global = 7.34975e-07, cumulative = 2.49045e-05
Maximum rho difference fraction = 1.66296e-06
Heat error = -0.000218713
ExecutionTime = 122.34 s  ClockTime = 130 s

Time = 0.35

Courant Number mean: 0.00177295 max: 0.00298937 max Ndt = 0.0534589
diagonal:  Solving for rho, Initial residual = 0, Final residual = 0, No Iterations 0
DILUPBiCGStab:  Solving for theta, Initial residual = 2.53666e-05, Final residual = 2.78539e-11, No Iterations 1
DICPCG:  Solving for Exner, Initial residual = 0.999817, Final residual = 0.0946171, No Iterations 15
DICPCG:  Solving for Exner, Initial residual = 0.0767729, Final residual = 0.00755262, No Iterations 66
diagonal:  Solving for rho, Initial residual = 0, Final residual = 0, No Iterations 0
DILUPBiCGStab:  Solving for theta, Initial residual = 3.59953e-05, Final residual = 1.99751e-11, No Iterations 1
DICPCG:  Solving for Exner, Initial residual = 0.00505052, Final residual = 0.000456228, No Iterations 90
DICPCG:  Solving for Exner, Initial residual = 0.000456199, Final residual = 9.81867e-07, No Iterations 167
time step continuity errors : sum local = 8.63016e-07, global = -8.63016e-07, cumulative = 2.40415e-05
Maximum rho difference fraction = 1.35954e-06
Heat error = -0.00022018
ExecutionTime = 125.85 s  ClockTime = 133 s

Time = 0.36

Courant Number mean: 0.00171676 max: 0.00322983 max Ndt = 0.0534579
diagonal:  Solving for rho, Initial residual = 0, Final residual = 0, No Iterations 0
DILUPBiCGStab:  Solving for theta, Initial residual = 5.17086e-05, Final residual = 1.32726e-11, No Iterations 1
DICPCG:  Solving for Exner, Initial residual = 0.999826, Final residual = 0.0949058, No Iterations 15
DICPCG:  Solving for Exner, Initial residual = 0.120943, Final residual = 0.00934152, No Iterations 41
diagonal:  Solving for rho, Initial residual = 0, Final residual = 0, No Iterations 0
DILUPBiCGStab:  Solving for theta, Initial residual = 2.24037e-05, Final residual = 2.65928e-11, No Iterations 1
DICPCG:  Solving for Exner, Initial residual = 0.00744884, Final residual = 0.000720342, No Iterations 68
DICPCG:  Solving for Exner, Initial residual = 0.000720236, Final residual = 9.29894e-07, No Iterations 165
time step continuity errors : sum local = 1.31053e-06, global = -4.3164e-07, cumulative = 2.36099e-05
Maximum rho difference fraction = 2.40692e-06
Heat error = -0.00021975
ExecutionTime = 129.22 s  ClockTime = 137 s

Time = 0.37

Courant Number mean: 0.00135631 max: 0.00262687 max Ndt = 0.0534605
diagonal:  Solving for rho, Initial residual = 0, Final residual = 0, No Iterations 0
DILUPBiCGStab:  Solving for theta, Initial residual = 2.04683e-05, Final residual = 3.83434e-11, No Iterations 1
DICPCG:  Solving for Exner, Initial residual = 0.999869, Final residual = 0.0958441, No Iterations 15
DICPCG:  Solving for Exner, Initial residual = 0.0778507, Final residual = 0.005944, No Iterations 68
diagonal:  Solving for rho, Initial residual = 0, Final residual = 0, No Iterations 0
DILUPBiCGStab:  Solving for theta, Initial residual = 1.23297e-05, Final residual = 3.58633e-11, No Iterations 1
DICPCG:  Solving for Exner, Initial residual = 0.00380659, Final residual = 0.000369226, No Iterations 100
DICPCG:  Solving for Exner, Initial residual = 0.000369385, Final residual = 9.79229e-07, No Iterations 193
time step continuity errors : sum local = 6.47613e-07, global = 6.47613e-07, cumulative = 2.42575e-05
Maximum rho difference fraction = 1.22849e-06
Heat error = -0.000218807
ExecutionTime = 132.81 s  ClockTime = 141 s

Time = 0.38

Courant Number mean: 0.0016479 max: 0.00361771 max Ndt = 0.0534646
diagonal:  Solving for rho, Initial residual = 0, Final residual = 0, No Iterations 0
DILUPBiCGStab:  Solving for theta, Initial residual = 1.95859e-05, Final residual = 2.9968e-11, No Iterations 1
DICPCG:  Solving for Exner, Initial residual = 0.999807, Final residual = 0.0941265, No Iterations 15
DICPCG:  Solving for Exner, Initial residual = 0.119996, Final residual = 0.0095659, No Iterations 41
diagonal:  Solving for rho, Initial residual = 0, Final residual = 0, No Iterations 0
DILUPBiCGStab:  Solving for theta, Initial residual = 1.09801e-05, Final residual = 2.87371e-11, No Iterations 1
DICPCG:  Solving for Exner, Initial residual = 0.00621634, Final residual = 0.00051244, No Iterations 68
DICPCG:  Solving for Exner, Initial residual = 0.000512168, Final residual = 9.23967e-07, No Iterations 163
time step continuity errors : sum local = 1.14657e-06, global = 1.95754e-07, cumulative = 2.44532e-05
Maximum rho difference fraction = 1.80936e-06
Heat error = -0.000219252
ExecutionTime = 136.19 s  ClockTime = 144 s

Time = 0.39

Courant Number mean: 0.00101295 max: 0.0024342 max Ndt = 0.0534682
diagonal:  Solving for rho, Initial residual = 0, Final residual = 0, No Iterations 0
DILUPBiCGStab:  Solving for theta, Initial residual = 1.21009e-05, Final residual = 4.08141e-11, No Iterations 1
DICPCG:  Solving for Exner, Initial residual = 0.999849, Final residual = 0.0950573, No Iterations 15
DICPCG:  Solving for Exner, Initial residual = 0.076976, Final residual = 0.00742098, No Iterations 63
diagonal:  Solving for rho, Initial residual = 0, Final residual = 0, No Iterations 0
DILUPBiCGStab:  Solving for theta, Initial residual = 2.39094e-05, Final residual = 8.75187e-12, No Iterations 1
DICPCG:  Solving for Exner, Initial residual = 0.00395928, Final residual = 0.000387177, No Iterations 87
DICPCG:  Solving for Exner, Initial residual = 0.000387213, Final residual = 7.89224e-07, No Iterations 164
time step continuity errors : sum local = 5.37572e-07, global = -5.25677e-07, cumulative = 2.39275e-05
Maximum rho difference fraction = 1.43639e-06
Heat error = -0.0002199
ExecutionTime = 139.66 s  ClockTime = 148 s

Time = 0.4

Courant Number mean: 0.00184336 max: 0.00399908 max Ndt = 0.0534701
diagonal:  Solving for rho, Initial residual = 0, Final residual = 0, No Iterations 0
DILUPBiCGStab:  Solving for theta, Initial residual = 3.62133e-05, Final residual = 1.90635e-11, No Iterations 1
DICPCG:  Solving for Exner, Initial residual = 0.99978, Final residual = 0.0954204, No Iterations 15
DICPCG:  Solving for Exner, Initial residual = 0.121863, Final residual = 0.0102883, No Iterations 41
diagonal:  Solving for rho, Initial residual = 0, Final residual = 0, No Iterations 0
DILUPBiCGStab:  Solving for theta, Initial residual = 1.86946e-05, Final residual = 3.21163e-11, No Iterations 1
DICPCG:  Solving for Exner, Initial residual = 0.00769929, Final residual = 0.000736027, No Iterations 83
DICPCG:  Solving for Exner, Initial residual = 0.000735739, Final residual = 8.64373e-07, No Iterations 166
time step continuity errors : sum local = 2.08065e-06, global = -4.26036e-08, cumulative = 2.38849e-05
Maximum rho difference fraction = 2.99418e-06
Heat error = -0.000219475
ExecutionTime = 143.07 s  ClockTime = 152 s

Time = 0.41

Courant Number mean: 0.000659405 max: 0.00161089 max Ndt = 0.0534735
diagonal:  Solving for rho, Initial residual = 0, Final residual = 0, No Iterations 0
DILUPBiCGStab:  Solving for theta, Initial residual = 2.26388e-05, Final residual = 2.9819e-11, No Iterations 1
DICPCG:  Solving for Exner, Initial residual = 0.999831, Final residual = 0.097175, No Iterations 15
DICPCG:  Solving for Exner, Initial residual = 0.0788354, Final residual = 0.0077769, No Iterations 67
diagonal:  Solving for rho, Initial residual = 0, Final residual = 0, No Iterations 0
DILUPBiCGStab:  Solving for theta, Initial residual = 1.48997e-05, Final residual = 7.03661e-11, No Iterations 1
DICPCG:  Solving for Exner, Initial residual = 0.00425618, Final residual = 0.000409348, No Iterations 72
DICPCG:  Solving for Exner, Initial residual = 0.000409692, Final residual = 9.88182e-07, No Iterations 163
time step continuity errors : sum local = 9.67486e-07, global = 3.77647e-07, cumulative = 2.42626e-05
Maximum rho difference fraction = 2.00039e-06
Heat error = -0.000219152
ExecutionTime = 146.5 s  ClockTime = 155 s

Time = 0.42

Courant Number mean: 0.00198131 max: 0.00403163 max Ndt = 0.0534772
diagonal:  Solving for rho, Initial residual = 0, Final residual = 0, No Iterations 0
DILUPBiCGStab:  Solving for theta, Initial residual = 2.33781e-05, Final residual = 6.63862e-11, No Iterations 1
DICPCG:  Solving for Exner, Initial residual = 0.999734, Final residual = 0.0953108, No Iterations 15
DICPCG:  Solving for Exner, Initial residual = 0.121408, Final residual = 0.00944872, No Iterations 41
diagonal:  Solving for rho, Initial residual = 0, Final residual = 0, No Iterations 0
DILUPBiCGStab:  Solving for theta, Initial residual = 1.08644e-05, Final residual = 8.23811e-11, No Iterations 1
DICPCG:  Solving for Exner, Initial residual = 0.00726483, Final residual = 0.000651479, No Iterations 82
DICPCG:  Solving for Exner, Initial residual = 0.000650667, Final residual = 9.63862e-07, No Iterations 166
time step continuity errors : sum local = 1.68482e-06, global = -1.68826e-07, cumulative = 2.40938e-05
Maximum rho difference fraction = 2.88645e-06
Heat error = -0.000219648
ExecutionTime = 149.94 s  ClockTime = 159 s

Time = 0.43

Courant Number mean: 0.000635273 max: 0.00165046 max Ndt = 0.0534817
diagonal:  Solving for rho, Initial residual = 0, Final residual = 0, No Iterations 0
DILUPBiCGStab:  Solving for theta, Initial residual = 1.52024e-05, Final residual = 9.39586e-11, No Iterations 1
DICPCG:  Solving for Exner, Initial residual = 0.999785, Final residual = 0.0940404, No Iterations 15
DICPCG:  Solving for Exner, Initial residual = 0.0761592, Final residual = 0.00697029, No Iterations 44
diagonal:  Solving for rho, Initial residual = 0, Final residual = 0, No Iterations 0
DILUPBiCGStab:  Solving for theta, Initial residual = 2.61816e-05, Final residual = 1.23819e-10, No Iterations 1
DICPCG:  Solving for Exner, Initial residual = 0.00312443, Final residual = 0.000264978, No Iterations 52
DICPCG:  Solving for Exner, Initial residual = 0.00026493, Final residual = 9.63004e-07, No Iterations 164
time step continuity errors : sum local = 7.50888e-07, global = -3.77756e-07, cumulative = 2.3716e-05
Maximum rho difference fraction = 1.51605e-06
Heat error = -0.000219776
ExecutionTime = 153.32 s  ClockTime = 163 s

Time = 0.44

Courant Number mean: 0.00223164 max: 0.00367746 max Ndt = 0.0534869
diagonal:  Solving for rho, Initial residual = 0, Final residual = 0, No Iterations 0
DILUPBiCGStab:  Solving for theta, Initial residual = 3.98499e-05, Final residual = 3.64582e-11, No Iterations 1
DICPCG:  Solving for Exner, Initial residual = 0.999797, Final residual = 0.0953856, No Iterations 15
DICPCG:  Solving for Exner, Initial residual = 0.121753, Final residual = 0.00886466, No Iterations 82
diagonal:  Solving for rho, Initial residual = 0, Final residual = 0, No Iterations 0
DILUPBiCGStab:  Solving for theta, Initial residual = 2.05191e-05, Final residual = 1.74069e-11, No Iterations 1
DICPCG:  Solving for Exner, Initial residual = 0.00681969, Final residual = 0.000680874, No Iterations 64
DICPCG:  Solving for Exner, Initial residual = 0.000681264, Final residual = 9.80678e-07, No Iterations 163
time step continuity errors : sum local = 9.1299e-07, global = 1.89759e-07, cumulative = 2.39058e-05
Maximum rho difference fraction = 1.81651e-06
Heat error = -0.000219277
ExecutionTime = 156.78 s  ClockTime = 166 s

Time = 0.45

Courant Number mean: 0.000921647 max: 0.00178569 max Ndt = 0.0534878
diagonal:  Solving for rho, Initial residual = 0, Final residual = 0, No Iterations 0
DILUPBiCGStab:  Solving for theta, Initial residual = 2.79938e-05, Final residual = 2.95647e-11, No Iterations 1
DICPCG:  Solving for Exner, Initial residual = 0.999807, Final residual = 0.0961311, No Iterations 15
DICPCG:  Solving for Exner, Initial residual = 0.0779221, Final residual = 0.00503732, No Iterations 77
diagonal:  Solving for rho, Initial residual = 0, Final residual = 0, No Iterations 0
DILUPBiCGStab:  Solving for theta, Initial residual = 1.52557e-05, Final residual = 3.89838e-11, No Iterations 1
DICPCG:  Solving for Exner, Initial residual = 0.00411414, Final residual = 0.000386676, No Iterations 53
DICPCG:  Solving for Exner, Initial residual = 0.000386716, Final residual = 9.73594e-07, No Iterations 156
time step continuity errors : sum local = 1.58197e-06, global = 2.37662e-07, cumulative = 2.41434e-05
Maximum rho difference fraction = 2.78671e-06
Heat error = -0.000219311
ExecutionTime = 160.18 s  ClockTime = 170 s

Time = 0.46

Courant Number mean: 0.00188846 max: 0.00296222 max Ndt = 0.0534855
diagonal:  Solving for rho, Initial residual = 0, Final residual = 0, No Iterations 0
DILUPBiCGStab:  Solving for theta, Initial residual = 1.53529e-05, Final residual = 3.10254e-11, No Iterations 1
DICPCG:  Solving for Exner, Initial residual = 0.999832, Final residual = 0.0943702, No Iterations 15
DICPCG:  Solving for Exner, Initial residual = 0.120356, Final residual = 0.011104, No Iterations 41
diagonal:  Solving for rho, Initial residual = 0, Final residual = 0, No Iterations 0
DILUPBiCGStab:  Solving for theta, Initial residual = 1.17287e-05, Final residual = 1.45467e-10, No Iterations 1
DICPCG:  Solving for Exner, Initial residual = 0.00657062, Final residual = 0.000534365, No Iterations 63
DICPCG:  Solving for Exner, Initial residual = 0.000534495, Final residual = 8.08468e-07, No Iterations 169
time step continuity errors : sum local = 7.60258e-07, global = -3.53812e-07, cumulative = 2.37896e-05
Maximum rho difference fraction = 1.77467e-06
Heat error = -0.000219884
ExecutionTime = 163.57 s  ClockTime = 174 s

Time = 0.47

Courant Number mean: 0.0013996 max: 0.00234124 max Ndt = 0.0534896
diagonal:  Solving for rho, Initial residual = 0, Final residual = 0, No Iterations 0
DILUPBiCGStab:  Solving for theta, Initial residual = 1.93977e-05, Final residual = 2.04005e-10, No Iterations 1
DICPCG:  Solving for Exner, Initial residual = 0.999803, Final residual = 0.0937381, No Iterations 15
DICPCG:  Solving for Exner, Initial residual = 0.0758747, Final residual = 0.00738602, No Iterations 41
diagonal:  Solving for rho, Initial residual = 0, Final residual = 0, No Iterations 0
DILUPBiCGStab:  Solving for theta, Initial residual = 1.72535e-05, Final residual = 9.46285e-11, No Iterations 1
DICPCG:  Solving for Exner, Initial residual = 0.00223149, Final residual = 0.000209688, No Iterations 59
DICPCG:  Solving for Exner, Initial residual = 0.000209712, Final residual = 9.55112e-07, No Iterations 159
time step continuity errors : sum local = 2.13578e-06, global = -2.74369e-07, cumulative = 2.35152e-05
Maximum rho difference fraction = 3.59999e-06
Heat error = -0.000219781
ExecutionTime = 166.92 s  ClockTime = 177 s

Time = 0.48

Courant Number mean: 0.0014779 max: 0.00305725 max Ndt = 0.0534935
diagonal:  Solving for rho, Initial residual = 0, Final residual = 0, No Iterations 0
DILUPBiCGStab:  Solving for theta, Initial residual = 2.39679e-05, Final residual = 9.55212e-11, No Iterations 1
DICPCG:  Solving for Exner, Initial residual = 0.999775, Final residual = 0.0956197, No Iterations 15
DICPCG:  Solving for Exner, Initial residual = 0.121699, Final residual = 0.0105649, No Iterations 82
diagonal:  Solving for rho, Initial residual = 0, Final residual = 0, No Iterations 0
DILUPBiCGStab:  Solving for theta, Initial residual = 1.47505e-05, Final residual = 2.38611e-11, No Iterations 1
DICPCG:  Solving for Exner, Initial residual = 0.00764896, Final residual = 0.000691128, No Iterations 68
DICPCG:  Solving for Exner, Initial residual = 0.00069053, Final residual = 8.72182e-07, No Iterations 165
time step continuity errors : sum local = 4.54889e-07, global = 2.9438e-07, cumulative = 2.38096e-05
Maximum rho difference fraction = 1.14607e-06
Heat error = -0.000219224
ExecutionTime = 170.41 s  ClockTime = 181 s

Time = 0.49

Courant Number mean: 0.00172161 max: 0.00324822 max Ndt = 0.0534928
diagonal:  Solving for rho, Initial residual = 0, Final residual = 0, No Iterations 0
DILUPBiCGStab:  Solving for theta, Initial residual = 2.09423e-05, Final residual = 1.35623e-11, No Iterations 1
DICPCG:  Solving for Exner, Initial residual = 0.999773, Final residual = 0.0949253, No Iterations 15
DICPCG:  Solving for Exner, Initial residual = 0.0769837, Final residual = 0.00745089, No Iterations 50
diagonal:  Solving for rho, Initial residual = 0, Final residual = 0, No Iterations 0
DILUPBiCGStab:  Solving for theta, Initial residual = 1.64214e-05, Final residual = 8.55374e-11, No Iterations 1
DICPCG:  Solving for Exner, Initial residual = 0.00442681, Final residual = 0.00035342, No Iterations 67
DICPCG:  Solving for Exner, Initial residual = 0.000353647, Final residual = 9.32304e-07, No Iterations 159
time step continuity errors : sum local = 7.09372e-07, global = 2.26663e-07, cumulative = 2.40363e-05
Maximum rho difference fraction = 1.49674e-06
Heat error = -0.000219299
ExecutionTime = 173.8 s  ClockTime = 184 s

Time = 0.5

Courant Number mean: 0.00120003 max: 0.00234818 max Ndt = 0.0534986
diagonal:  Solving for rho, Initial residual = 0, Final residual = 0, No Iterations 0
DILUPBiCGStab:  Solving for theta, Initial residual = 2.1046e-05, Final residual = 9.75186e-11, No Iterations 1
DICPCG:  Solving for Exner, Initial residual = 0.999785, Final residual = 0.0946939, No Iterations 15
DICPCG:  Solving for Exner, Initial residual = 0.120373, Final residual = 0.0110108, No Iterations 57
diagonal:  Solving for rho, Initial residual = 0, Final residual = 0, No Iterations 0
DILUPBiCGStab:  Solving for theta, Initial residual = 1.71416e-05, Final residual = 6.19841e-11, No Iterations 1
DICPCG:  Solving for Exner, Initial residual = 0.00686408, Final residual = 0.000538539, No Iterations 72
DICPCG:  Solving for Exner, Initial residual = 0.000538761, Final residual = 9.24758e-07, No Iterations 163
time step continuity errors : sum local = 7.37795e-07, global = -3.12317e-07, cumulative = 2.3724e-05
Maximum rho difference fraction = 1.50058e-06
Heat error = -0.000219839
ExecutionTime = 177.22 s  ClockTime = 188 s

Time = 0.51

Courant Number mean: 0.00199796 max: 0.00353028 max Ndt = 0.0535063
diagonal:  Solving for rho, Initial residual = 0, Final residual = 0, No Iterations 0
DILUPBiCGStab:  Solving for theta, Initial residual = 2.45267e-05, Final residual = 4.70651e-11, No Iterations 1
DICPCG:  Solving for Exner, Initial residual = 0.999713, Final residual = 0.0942104, No Iterations 15
DICPCG:  Solving for Exner, Initial residual = 0.0764166, Final residual = 0.00636692, No Iterations 50
diagonal:  Solving for rho, Initial residual = 0, Final residual = 0, No Iterations 0
DILUPBiCGStab:  Solving for theta, Initial residual = 1.42094e-05, Final residual = 6.88951e-11, No Iterations 1
DICPCG:  Solving for Exner, Initial residual = 0.00417856, Final residual = 0.000387333, No Iterations 63
DICPCG:  Solving for Exner, Initial residual = 0.000387249, Final residual = 9.53291e-07, No Iterations 164
time step continuity errors : sum local = 2.31169e-06, global = -2.40684e-07, cumulative = 2.34833e-05
Maximum rho difference fraction = 3.85677e-06
Heat error = -0.000219773
ExecutionTime = 180.62 s  ClockTime = 192 s

Time = 0.52

Courant Number mean: 0.000952014 max: 0.00222427 max Ndt = 0.0535105
diagonal:  Solving for rho, Initial residual = 0, Final residual = 0, No Iterations 0
DILUPBiCGStab:  Solving for theta, Initial residual = 1.84287e-05, Final residual = 5.38288e-11, No Iterations 1
DICPCG:  Solving for Exner, Initial residual = 0.999756, Final residual = 0.0953181, No Iterations 15
DICPCG:  Solving for Exner, Initial residual = 0.121032, Final residual = 0.00976688, No Iterations 82
diagonal:  Solving for rho, Initial residual = 0, Final residual = 0, No Iterations 0
DILUPBiCGStab:  Solving for theta, Initial residual = 1.29208e-05, Final residual = 3.29411e-11, No Iterations 1
DICPCG:  Solving for Exner, Initial residual = 0.0052316, Final residual = 0.000423597, No Iterations 68
DICPCG:  Solving for Exner, Initial residual = 0.000423413, Final residual = 9.91819e-07, No Iterations 157
time step continuity errors : sum local = 1.09957e-06, global = 2.60753e-07, cumulative = 2.3744e-05
Maximum rho difference fraction = 2.08259e-06
Heat error = -0.000219272
ExecutionTime = 184.06 s  ClockTime = 195 s

Time = 0.53

Courant Number mean: 0.00213886 max: 0.00373081 max Ndt = 0.0535119
diagonal:  Solving for rho, Initial residual = 0, Final residual = 0, No Iterations 0
DILUPBiCGStab:  Solving for theta, Initial residual = 2.08324e-05, Final residual = 1.78302e-11, No Iterations 1
DICPCG:  Solving for Exner, Initial residual = 0.999707, Final residual = 0.0937708, No Iterations 15
DICPCG:  Solving for Exner, Initial residual = 0.0762538, Final residual = 0.00601808, No Iterations 50
diagonal:  Solving for rho, Initial residual = 0, Final residual = 0, No Iterations 0
DILUPBiCGStab:  Solving for theta, Initial residual = 1.34205e-05, Final residual = 1.59153e-10, No Iterations 1
DICPCG:  Solving for Exner, Initial residual = 0.00417655, Final residual = 0.000411902, No Iterations 68
DICPCG:  Solving for Exner, Initial residual = 0.00041223, Final residual = 8.85203e-07, No Iterations 160
time step continuity errors : sum local = 1.45173e-06, global = 2.22305e-07, cumulative = 2.39663e-05
Maximum rho difference fraction = 2.83607e-06
Heat error = -0.000219324
ExecutionTime = 187.44 s  ClockTime = 199 s

Time = 0.54

Courant Number mean: 0.00120168 max: 0.0024245 max Ndt = 0.0535143
diagonal:  Solving for rho, Initial residual = 0, Final residual = 0, No Iterations 0
DILUPBiCGStab:  Solving for theta, Initial residual = 1.93381e-05, Final residual = 1.57931e-10, No Iterations 1
DICPCG:  Solving for Exner, Initial residual = 0.999742, Final residual = 0.0927492, No Iterations 15
DICPCG:  Solving for Exner, Initial residual = 0.117622, Final residual = 0.0105002, No Iterations 50
diagonal:  Solving for rho, Initial residual = 0, Final residual = 0, No Iterations 0
DILUPBiCGStab:  Solving for theta, Initial residual = 1.64162e-05, Final residual = 2.09128e-10, No Iterations 1
DICPCG:  Solving for Exner, Initial residual = 0.00260611, Final residual = 0.000244441, No Iterations 84
DICPCG:  Solving for Exner, Initial residual = 0.0002446, Final residual = 9.31337e-07, No Iterations 158
time step continuity errors : sum local = 1.35233e-06, global = -2.65542e-07, cumulative = 2.37008e-05
Maximum rho difference fraction = 2.47098e-06
Heat error = -0.000219824
ExecutionTime = 190.88 s  ClockTime = 203 s

Time = 0.55

Courant Number mean: 0.00231189 max: 0.00386045 max Ndt = 0.053518
diagonal:  Solving for rho, Initial residual = 0, Final residual = 0, No Iterations 0
DILUPBiCGStab:  Solving for theta, Initial residual = 2.41612e-05, Final residual = 1.36537e-10, No Iterations 1
DICPCG:  Solving for Exner, Initial residual = 0.99968, Final residual = 0.0942422, No Iterations 15
DICPCG:  Solving for Exner, Initial residual = 0.0764991, Final residual = 0.00624135, No Iterations 82
diagonal:  Solving for rho, Initial residual = 0, Final residual = 0, No Iterations 0
DILUPBiCGStab:  Solving for theta, Initial residual = 1.2864e-05, Final residual = 1.04591e-10, No Iterations 1
DICPCG:  Solving for Exner, Initial residual = 0.00490835, Final residual = 0.000474367, No Iterations 67
DICPCG:  Solving for Exner, Initial residual = 0.000474022, Final residual = 8.55868e-07, No Iterations 161
time step continuity errors : sum local = 1.16326e-06, global = -2.21532e-07, cumulative = 2.34793e-05
Maximum rho difference fraction = 2.15048e-06
Heat error = -0.000219775
ExecutionTime = 194.32 s  ClockTime = 206 s

Time = 0.56

Courant Number mean: 0.00140827 max: 0.00271521 max Ndt = 0.0535216
diagonal:  Solving for rho, Initial residual = 0, Final residual = 0, No Iterations 0
DILUPBiCGStab:  Solving for theta, Initial residual = 1.94947e-05, Final residual = 1.78914e-10, No Iterations 1
DICPCG:  Solving for Exner, Initial residual = 0.999761, Final residual = 0.0943529, No Iterations 15
DICPCG:  Solving for Exner, Initial residual = 0.119474, Final residual = 0.00809185, No Iterations 82
diagonal:  Solving for rho, Initial residual = 0, Final residual = 0, No Iterations 0
DILUPBiCGStab:  Solving for theta, Initial residual = 1.37584e-05, Final residual = 1.02938e-10, No Iterations 1
DICPCG:  Solving for Exner, Initial residual = 0.00265343, Final residual = 0.000247186, No Iterations 71
DICPCG:  Solving for Exner, Initial residual = 0.000247285, Final residual = 9.36394e-07, No Iterations 157
time step continuity errors : sum local = 1.58612e-06, global = 2.44075e-07, cumulative = 2.37233e-05
Maximum rho difference fraction = 2.78728e-06
Heat error = -0.000219289
ExecutionTime = 197.77 s  ClockTime = 210 s

Time = 0.57

Courant Number mean: 0.00206375 max: 0.00386664 max Ndt = 0.0535275
diagonal:  Solving for rho, Initial residual = 0, Final residual = 0, No Iterations 0
DILUPBiCGStab:  Solving for theta, Initial residual = 2.16679e-05, Final residual = 9.75447e-11, No Iterations 1
DICPCG:  Solving for Exner, Initial residual = 0.999697, Final residual = 0.0918447, No Iterations 15
DICPCG:  Solving for Exner, Initial residual = 0.0745848, Final residual = 0.0065957, No Iterations 50
diagonal:  Solving for rho, Initial residual = 0, Final residual = 0, No Iterations 0
DILUPBiCGStab:  Solving for theta, Initial residual = 1.39531e-05, Final residual = 1.31785e-10, No Iterations 1
DICPCG:  Solving for Exner, Initial residual = 0.00489435, Final residual = 0.000467556, No Iterations 66
DICPCG:  Solving for Exner, Initial residual = 0.000467725, Final residual = 8.78711e-07, No Iterations 164
time step continuity errors : sum local = 7.58551e-07, global = 2.0121e-07, cumulative = 2.39246e-05
Maximum rho difference fraction = 1.69814e-06
Heat error = -0.000219328
ExecutionTime = 201.14 s  ClockTime = 214 s

Time = 0.58

Courant Number mean: 0.00174126 max: 0.00333537 max Ndt = 0.0535309
diagonal:  Solving for rho, Initial residual = 0, Final residual = 0, No Iterations 0
DILUPBiCGStab:  Solving for theta, Initial residual = 2.27425e-05, Final residual = 1.42584e-10, No Iterations 1
DICPCG:  Solving for Exner, Initial residual = 0.999747, Final residual = 0.0914634, No Iterations 15
DICPCG:  Solving for Exner, Initial residual = 0.115417, Final residual = 0.0114714, No Iterations 54
diagonal:  Solving for rho, Initial residual = 0, Final residual = 0, No Iterations 0
DILUPBiCGStab:  Solving for theta, Initial residual = 2.24248e-05, Final residual = 1.88584e-10, No Iterations 1
DICPCG:  Solving for Exner, Initial residual = 0.00706563, Final residual = 0.000642279, No Iterations 81
DICPCG:  Solving for Exner, Initial residual = 0.000642231, Final residual = 9.31669e-07, No Iterations 167
time step continuity errors : sum local = 2.30059e-06, global = -2.35881e-07, cumulative = 2.36887e-05
Maximum rho difference fraction = 3.99387e-06
Heat error = -0.000219791
ExecutionTime = 204.59 s  ClockTime = 217 s

Time = 0.59

Courant Number mean: 0.00168543 max: 0.00347735 max Ndt = 0.0535267
diagonal:  Solving for rho, Initial residual = 0, Final residual = 0, No Iterations 0
DILUPBiCGStab:  Solving for theta, Initial residual = 2.82312e-05, Final residual = 1.09436e-10, No Iterations 1
DICPCG:  Solving for Exner, Initial residual = 0.999769, Final residual = 0.0939533, No Iterations 15
DICPCG:  Solving for Exner, Initial residual = 0.0762729, Final residual = 0.00734703, No Iterations 81
diagonal:  Solving for rho, Initial residual = 0, Final residual = 0, No Iterations 0
DILUPBiCGStab:  Solving for theta, Initial residual = 1.75633e-05, Final residual = 9.3402e-11, No Iterations 1
DICPCG:  Solving for Exner, Initial residual = 0.00460627, Final residual = 0.00035265, No Iterations 70
DICPCG:  Solving for Exner, Initial residual = 0.000352211, Final residual = 9.44336e-07, No Iterations 159
time step continuity errors : sum local = 1.16775e-06, global = -2.12053e-07, cumulative = 2.34766e-05
Maximum rho difference fraction = 2.08713e-06
Heat error = -0.000219759
ExecutionTime = 208.08 s  ClockTime = 221 s

Time = 0.6

Courant Number mean: 0.00201233 max: 0.00374399 max Ndt = 0.0535214
diagonal:  Solving for rho, Initial residual = 0, Final residual = 0, No Iterations 0
DILUPBiCGStab:  Solving for theta, Initial residual = 2.70741e-05, Final residual = 2.08772e-10, No Iterations 1
DICPCG:  Solving for Exner, Initial residual = 0.999786, Final residual = 0.0983124, No Iterations 10
DICPCG:  Solving for Exner, Initial residual = 0.120631, Final residual = 0.0118993, No Iterations 59
diagonal:  Solving for rho, Initial residual = 0, Final residual = 0, No Iterations 0
DILUPBiCGStab:  Solving for theta, Initial residual = 2.00028e-05, Final residual = 2.85503e-10, No Iterations 1
DICPCG:  Solving for Exner, Initial residual = 0.00694607, Final residual = 0.000605425, No Iterations 83
DICPCG:  Solving for Exner, Initial residual = 0.000606617, Final residual = 7.88608e-07, No Iterations 170
time step continuity errors : sum local = 1.15941e-06, global = 2.3146e-07, cumulative = 2.37081e-05
Maximum rho difference fraction = 2.23533e-06
Heat error = -0.000219236
ExecutionTime = 211.57 s  ClockTime = 225 s

Time = 0.61

Courant Number mean: 0.00175859 max: 0.00384341 max Ndt = 0.0535235
diagonal:  Solving for rho, Initial residual = 0, Final residual = 0, No Iterations 0
DILUPBiCGStab:  Solving for theta, Initial residual = 2.58169e-05, Final residual = 3.52795e-10, No Iterations 1
DICPCG:  Solving for Exner, Initial residual = 0.999769, Final residual = 0.0936598, No Iterations 15
DICPCG:  Solving for Exner, Initial residual = 0.0761034, Final residual = 0.00689843, No Iterations 50
diagonal:  Solving for rho, Initial residual = 0, Final residual = 0, No Iterations 0
DILUPBiCGStab:  Solving for theta, Initial residual = 1.37199e-05, Final residual = 9.54337e-11, No Iterations 1
DICPCG:  Solving for Exner, Initial residual = 0.0043323, Final residual = 0.00041098, No Iterations 66
DICPCG:  Solving for Exner, Initial residual = 0.00041115, Final residual = 9.47327e-07, No Iterations 163
time step continuity errors : sum local = 1.63779e-06, global = 2.46656e-07, cumulative = 2.39547e-05
Maximum rho difference fraction = 2.84612e-06
Heat error = -0.000219195
ExecutionTime = 214.99 s  ClockTime = 228 s

Time = 0.62

Courant Number mean: 0.00206835 max: 0.00365909 max Ndt = 0.0535303
diagonal:  Solving for rho, Initial residual = 0, Final residual = 0, No Iterations 0
DILUPBiCGStab:  Solving for theta, Initial residual = 2.53691e-05, Final residual = 2.02948e-10, No Iterations 1
DICPCG:  Solving for Exner, Initial residual = 0.999744, Final residual = 0.0948903, No Iterations 15
DICPCG:  Solving for Exner, Initial residual = 0.119332, Final residual = 0.00905803, No Iterations 80
diagonal:  Solving for rho, Initial residual = 0, Final residual = 0, No Iterations 0
DILUPBiCGStab:  Solving for theta, Initial residual = 1.63746e-05, Final residual = 1.34192e-10, No Iterations 1
DICPCG:  Solving for Exner, Initial residual = 0.00727409, Final residual = 0.000545543, No Iterations 66
DICPCG:  Solving for Exner, Initial residual = 0.000544462, Final residual = 9.75214e-07, No Iterations 167
time step continuity errors : sum local = 1.59355e-06, global = -1.31994e-07, cumulative = 2.38227e-05
Maximum rho difference fraction = 2.84313e-06
Heat error = -0.000219613
ExecutionTime = 218.46 s  ClockTime = 232 s

Time = 0.63

Courant Number mean: 0.00176672 max: 0.00359594 max Ndt = 0.053533
diagonal:  Solving for rho, Initial residual = 0, Final residual = 0, No Iterations 0
DILUPBiCGStab:  Solving for theta, Initial residual = 2.73658e-05, Final residual = 1.79674e-10, No Iterations 1
DICPCG:  Solving for Exner, Initial residual = 0.999785, Final residual = 0.0950449, No Iterations 15
DICPCG:  Solving for Exner, Initial residual = 0.0773594, Final residual = 0.00606942, No Iterations 80
diagonal:  Solving for rho, Initial residual = 0, Final residual = 0, No Iterations 0
DILUPBiCGStab:  Solving for theta, Initial residual = 1.80089e-05, Final residual = 9.02033e-11, No Iterations 1
DICPCG:  Solving for Exner, Initial residual = 0.00208314, Final residual = 0.00020191, No Iterations 88
DICPCG:  Solving for Exner, Initial residual = 0.00020198, Final residual = 9.78402e-07, No Iterations 159
time step continuity errors : sum local = 1.38985e-06, global = -1.76337e-07, cumulative = 2.36464e-05
Maximum rho difference fraction = 2.54776e-06
Heat error = -0.000219672
ExecutionTime = 221.99 s  ClockTime = 236 s

Time = 0.64

Courant Number mean: 0.00212165 max: 0.00360942 max Ndt = 0.0535351
diagonal:  Solving for rho, Initial residual = 0, Final residual = 0, No Iterations 0
DILUPBiCGStab:  Solving for theta, Initial residual = 2.70771e-05, Final residual = 6.92569e-11, No Iterations 1
DICPCG:  Solving for Exner, Initial residual = 0.999773, Final residual = 0.0922636, No Iterations 15
DICPCG:  Solving for Exner, Initial residual = 0.116596, Final residual = 0.010282, No Iterations 39
diagonal:  Solving for rho, Initial residual = 0, Final residual = 0, No Iterations 0
DILUPBiCGStab:  Solving for theta, Initial residual = 1.46918e-05, Final residual = 1.80608e-10, No Iterations 1
DICPCG:  Solving for Exner, Initial residual = 0.00692014, Final residual = 0.000595728, No Iterations 70
DICPCG:  Solving for Exner, Initial residual = 0.000596362, Final residual = 9.41183e-07, No Iterations 166
time step continuity errors : sum local = 7.00608e-07, global = 1.56401e-07, cumulative = 2.38028e-05
Maximum rho difference fraction = 1.4264e-06
Heat error = -0.000219331
ExecutionTime = 225.41 s  ClockTime = 239 s

Time = 0.65

Courant Number mean: 0.00200335 max: 0.00443654 max Ndt = 0.0535401
diagonal:  Solving for rho, Initial residual = 0, Final residual = 0, No Iterations 0
DILUPBiCGStab:  Solving for theta, Initial residual = 2.45455e-05, Final residual = 1.89017e-10, No Iterations 1
DICPCG:  Solving for Exner, Initial residual = 0.999784, Final residual = 0.0937444, No Iterations 15
DICPCG:  Solving for Exner, Initial residual = 0.0762075, Final residual = 0.00759924, No Iterations 81
diagonal:  Solving for rho, Initial residual = 0, Final residual = 0, No Iterations 0
DILUPBiCGStab:  Solving for theta, Initial residual = 1.78108e-05, Final residual = 2.22288e-10, No Iterations 1
DICPCG:  Solving for Exner, Initial residual = 0.00481214, Final residual = 0.000444315, No Iterations 59
DICPCG:  Solving for Exner, Initial residual = 0.000444242, Final residual = 9.24559e-07, No Iterations 167
time step continuity errors : sum local = 1.52495e-06, global = 1.54902e-07, cumulative = 2.39577e-05
Maximum rho difference fraction = 2.38796e-06
Heat error = -0.000219354
ExecutionTime = 228.91 s  ClockTime = 243 s

Time = 0.66

Courant Number mean: 0.00168986 max: 0.00289945 max Ndt = 0.0535415
diagonal:  Solving for rho, Initial residual = 0, Final residual = 0, No Iterations 0
DILUPBiCGStab:  Solving for theta, Initial residual = 2.76087e-05, Final residual = 1.08029e-10, No Iterations 1
DICPCG:  Solving for Exner, Initial residual = 0.999811, Final residual = 0.0957801, No Iterations 15
DICPCG:  Solving for Exner, Initial residual = 0.121066, Final residual = 0.010688, No Iterations 81
diagonal:  Solving for rho, Initial residual = 0, Final residual = 0, No Iterations 0
DILUPBiCGStab:  Solving for theta, Initial residual = 1.86868e-05, Final residual = 3.79378e-10, No Iterations 1
DICPCG:  Solving for Exner, Initial residual = 0.00366767, Final residual = 0.000354474, No Iterations 66
DICPCG:  Solving for Exner, Initial residual = 0.000354383, Final residual = 9.82515e-07, No Iterations 161
time step continuity errors : sum local = 1.42887e-06, global = -1.17349e-07, cumulative = 2.38404e-05
Maximum rho difference fraction = 2.30758e-06
Heat error = -0.000219629
ExecutionTime = 232.4 s  ClockTime = 247 s

Time = 0.67

Courant Number mean: 0.00187387 max: 0.00410324 max Ndt = 0.0535461
diagonal:  Solving for rho, Initial residual = 0, Final residual = 0, No Iterations 0
DILUPBiCGStab:  Solving for theta, Initial residual = 2.9256e-05, Final residual = 6.39012e-10, No Iterations 1
DICPCG:  Solving for Exner, Initial residual = 0.999766, Final residual = 0.0945614, No Iterations 15
DICPCG:  Solving for Exner, Initial residual = 0.0768983, Final residual = 0.00497176, No Iterations 82
diagonal:  Solving for rho, Initial residual = 0, Final residual = 0, No Iterations 0
DILUPBiCGStab:  Solving for theta, Initial residual = 1.45702e-05, Final residual = 1.67516e-10, No Iterations 1
DICPCG:  Solving for Exner, Initial residual = 0.00501105, Final residual = 0.000488107, No Iterations 64
DICPCG:  Solving for Exner, Initial residual = 0.000488119, Final residual = 9.78963e-07, No Iterations 159
time step continuity errors : sum local = 1.25394e-06, global = -8.77243e-08, cumulative = 2.37526e-05
Maximum rho difference fraction = 2.02588e-06
Heat error = -0.000219581
ExecutionTime = 235.99 s  ClockTime = 251 s

Time = 0.68

Courant Number mean: 0.00159554 max: 0.0030233 max Ndt = 0.0535522
diagonal:  Solving for rho, Initial residual = 0, Final residual = 0, No Iterations 0
DILUPBiCGStab:  Solving for theta, Initial residual = 2.47979e-05, Final residual = 7.04383e-11, No Iterations 1
DICPCG:  Solving for Exner, Initial residual = 0.999872, Final residual = 0.0933793, No Iterations 15
DICPCG:  Solving for Exner, Initial residual = 0.118112, Final residual = 0.0115631, No Iterations 37
diagonal:  Solving for rho, Initial residual = 0, Final residual = 0, No Iterations 0
DILUPBiCGStab:  Solving for theta, Initial residual = 1.74121e-05, Final residual = 2.49797e-10, No Iterations 1
DICPCG:  Solving for Exner, Initial residual = 0.00609143, Final residual = 0.000576597, No Iterations 64
DICPCG:  Solving for Exner, Initial residual = 0.000576478, Final residual = 9.63711e-07, No Iterations 168
time step continuity errors : sum local = 1.29848e-06, global = 1.25215e-07, cumulative = 2.38779e-05
Maximum rho difference fraction = 1.91446e-06
Heat error = -0.000219377
ExecutionTime = 239.56 s  ClockTime = 254 s

Time = 0.69

Courant Number mean: 0.00160164 max: 0.003646 max Ndt = 0.0535485
diagonal:  Solving for rho, Initial residual = 0, Final residual = 0, No Iterations 0
DILUPBiCGStab:  Solving for theta, Initial residual = 2.92678e-05, Final residual = 6.08007e-10, No Iterations 1
DICPCG:  Solving for Exner, Initial residual = 0.999777, Final residual = 0.094713, No Iterations 15
DICPCG:  Solving for Exner, Initial residual = 0.0769233, Final residual = 0.00665443, No Iterations 82
diagonal:  Solving for rho, Initial residual = 0, Final residual = 0, No Iterations 0
DILUPBiCGStab:  Solving for theta, Initial residual = 1.47716e-05, Final residual = 1.94134e-10, No Iterations 1
DICPCG:  Solving for Exner, Initial residual = 0.00385068, Final residual = 0.000349295, No Iterations 82
DICPCG:  Solving for Exner, Initial residual = 0.000349408, Final residual = 7.81825e-07, No Iterations 162
time step continuity errors : sum local = 1.21894e-06, global = 6.85922e-08, cumulative = 2.39464e-05
Maximum rho difference fraction = 2.31059e-06
Heat error = -0.000219445
ExecutionTime = 243.21 s  ClockTime = 258 s

Time = 0.7

Courant Number mean: 0.00148753 max: 0.00306295 max Ndt = 0.0535463
diagonal:  Solving for rho, Initial residual = 0, Final residual = 0, No Iterations 0
DILUPBiCGStab:  Solving for theta, Initial residual = 2.68074e-05, Final residual = 2.23194e-10, No Iterations 1
DICPCG:  Solving for Exner, Initial residual = 0.999811, Final residual = 0.0956819, No Iterations 15
DICPCG:  Solving for Exner, Initial residual = 0.120872, Final residual = 0.0106114, No Iterations 82
diagonal:  Solving for rho, Initial residual = 0, Final residual = 0, No Iterations 0
[...]
DICPCG:  Solving for Exner, Initial residual = 0.469357, Final residual = 0.0457585, No Iterations 18
DICPCG:  Solving for Exner, Initial residual = 0.0988679, Final residual = 0.00954421, No Iterations 70
diagonal:  Solving for rho, Initial residual = 0, Final residual = 0, No Iterations 0
DILUPBiCGStab:  Solving for theta, Initial residual = 0.0103111, Final residual = 9.52439e-08, No Iterations 2
DICPCG:  Solving for Exner, Initial residual = 0.0570377, Final residual = 0.00548413, No Iterations 59
DICPCG:  Solving for Exner, Initial residual = 0.0117069, Final residual = 8.87071e-07, No Iterations 261
time step continuity errors : sum local = 6.22192e-05, global = -6.22192e-05, cumulative = -0.0137466
Maximum rho difference fraction = 8.91985e-05
Heat error = 0.0314726
ExecutionTime = 4017.96 s  ClockTime = 4251 s

Time = 11.37

Courant Number mean: 0.501361 max: 2.13809 max Ndt = 0.193649
diagonal:  Solving for rho, Initial residual = 0, Final residual = 0, No Iterations 0
DILUPBiCGStab:  Solving for theta, Initial residual = 0.124922, Final residual = 1.02745e-07, No Iterations 2
DICPCG:  Solving for Exner, Initial residual = 0.471481, Final residual = 0.0466708, No Iterations 25
DICPCG:  Solving for Exner, Initial residual = 0.0983584, Final residual = 0.00948906, No Iterations 68
diagonal:  Solving for rho, Initial residual = 0, Final residual = 0, No Iterations 0
DILUPBiCGStab:  Solving for theta, Initial residual = 0.0104104, Final residual = 9.28656e-08, No Iterations 2
DICPCG:  Solving for Exner, Initial residual = 0.0557743, Final residual = 0.00552393, No Iterations 2
DICPCG:  Solving for Exner, Initial residual = 0.0106524, Final residual = 9.67435e-07, No Iterations 244
time step continuity errors : sum local = 4.61049e-05, global = -4.61049e-05, cumulative = -0.0137928
Maximum rho difference fraction = 7.17428e-05
Heat error = 0.0316098
ExecutionTime = 4021.45 s  ClockTime = 4255 s

Time = 11.38

Courant Number mean: 0.50141 max: 2.13643 max Ndt = 0.199773
diagonal:  Solving for rho, Initial residual = 0, Final residual = 0, No Iterations 0
DILUPBiCGStab:  Solving for theta, Initial residual = 0.125429, Final residual = 8.6679e-08, No Iterations 2
DICPCG:  Solving for Exner, Initial residual = 0.470049, Final residual = 0.0461222, No Iterations 37
DICPCG:  Solving for Exner, Initial residual = 0.0991262, Final residual = 0.00974019, No Iterations 49
diagonal:  Solving for rho, Initial residual = 0, Final residual = 0, No Iterations 0
DILUPBiCGStab:  Solving for theta, Initial residual = 0.0102702, Final residual = 8.69828e-08, No Iterations 2
DICPCG:  Solving for Exner, Initial residual = 0.055614, Final residual = 0.00531579, No Iterations 55
DICPCG:  Solving for Exner, Initial residual = 0.0103346, Final residual = 9.13134e-07, No Iterations 261
time step continuity errors : sum local = 3.35959e-05, global = -3.35959e-05, cumulative = -0.0138264
Maximum rho difference fraction = 5.64814e-05
Heat error = 0.0317423
ExecutionTime = 4025.08 s  ClockTime = 4259 s

Time = 11.39

Courant Number mean: 0.501896 max: 2.4371 max Ndt = 0.196179
diagonal:  Solving for rho, Initial residual = 0, Final residual = 0, No Iterations 0
DILUPBiCGStab:  Solving for theta, Initial residual = 0.125821, Final residual = 7.99152e-08, No Iterations 2
DICPCG:  Solving for Exner, Initial residual = 0.471171, Final residual = 0.0450686, No Iterations 36
DICPCG:  Solving for Exner, Initial residual = 0.0968668, Final residual = 0.00958596, No Iterations 19
diagonal:  Solving for rho, Initial residual = 0, Final residual = 0, No Iterations 0
DILUPBiCGStab:  Solving for theta, Initial residual = 0.010373, Final residual = 9.24264e-08, No Iterations 2
DICPCG:  Solving for Exner, Initial residual = 0.052443, Final residual = 0.00506845, No Iterations 2
DICPCG:  Solving for Exner, Initial residual = 0.00820037, Final residual = 9.27431e-07, No Iterations 243
time step continuity errors : sum local = 5.2528e-05, global = -5.2528e-05, cumulative = -0.0138789
Maximum rho difference fraction = 6.91074e-05
Heat error = 0.0318492
ExecutionTime = 4028.48 s  ClockTime = 4263 s

Time = 11.4

Courant Number mean: 0.502474 max: 2.15892 max Ndt = 0.181071
diagonal:  Solving for rho, Initial residual = 0, Final residual = 0, No Iterations 0
DILUPBiCGStab:  Solving for theta, Initial residual = 0.12614, Final residual = 7.63106e-08, No Iterations 2
DICPCG:  Solving for Exner, Initial residual = 0.470506, Final residual = 0.045802, No Iterations 24
DICPCG:  Solving for Exner, Initial residual = 0.0998912, Final residual = 0.0098437, No Iterations 40
diagonal:  Solving for rho, Initial residual = 0, Final residual = 0, No Iterations 0
DILUPBiCGStab:  Solving for theta, Initial residual = 0.0102948, Final residual = 8.69442e-08, No Iterations 2
DICPCG:  Solving for Exner, Initial residual = 0.0563944, Final residual = 0.00519716, No Iterations 124
DICPCG:  Solving for Exner, Initial residual = 0.0111646, Final residual = 9.22581e-07, No Iterations 204
time step continuity errors : sum local = 6.59667e-05, global = -6.59667e-05, cumulative = -0.0139448
Maximum rho difference fraction = 9.0803e-05
Heat error = 0.0319655
ExecutionTime = 4032.06 s  ClockTime = 4266 s

Time = 11.41

Courant Number mean: 0.503464 max: 2.40013 max Ndt = 0.161881
diagonal:  Solving for rho, Initial residual = 0, Final residual = 0, No Iterations 0
DILUPBiCGStab:  Solving for theta, Initial residual = 0.126053, Final residual = 8.29321e-08, No Iterations 2
DICPCG:  Solving for Exner, Initial residual = 0.471772, Final residual = 0.0451469, No Iterations 24
DICPCG:  Solving for Exner, Initial residual = 0.0984241, Final residual = 0.00968894, No Iterations 63
diagonal:  Solving for rho, Initial residual = 0, Final residual = 0, No Iterations 0
DILUPBiCGStab:  Solving for theta, Initial residual = 0.0103898, Final residual = 9.34166e-08, No Iterations 2
DICPCG:  Solving for Exner, Initial residual = 0.0549863, Final residual = 0.00533296, No Iterations 3
DICPCG:  Solving for Exner, Initial residual = 0.0101417, Final residual = 9.18729e-07, No Iterations 263
time step continuity errors : sum local = 4.53826e-05, global = -4.53826e-05, cumulative = -0.0139902
Maximum rho difference fraction = 6.88596e-05
Heat error = 0.0321154
ExecutionTime = 4035.59 s  ClockTime = 4270 s

Time = 11.42

Courant Number mean: 0.503759 max: 2.24783 max Ndt = 0.171308
diagonal:  Solving for rho, Initial residual = 0, Final residual = 0, No Iterations 0
DILUPBiCGStab:  Solving for theta, Initial residual = 0.126175, Final residual = 8.85196e-08, No Iterations 2
DICPCG:  Solving for Exner, Initial residual = 0.471496, Final residual = 0.0457655, No Iterations 25
DICPCG:  Solving for Exner, Initial residual = 0.101418, Final residual = 0.00980248, No Iterations 66
diagonal:  Solving for rho, Initial residual = 0, Final residual = 0, No Iterations 0
DILUPBiCGStab:  Solving for theta, Initial residual = 0.0103155, Final residual = 1.0631e-07, No Iterations 2
DICPCG:  Solving for Exner, Initial residual = 0.0582599, Final residual = 0.00513989, No Iterations 3
DICPCG:  Solving for Exner, Initial residual = 0.0107354, Final residual = 9.42392e-07, No Iterations 265
time step continuity errors : sum local = 3.49107e-05, global = -3.49107e-05, cumulative = -0.0140251
Maximum rho difference fraction = 5.61311e-05
Heat error = 0.0322564
ExecutionTime = 4039.15 s  ClockTime = 4274 s

Time = 11.43

Courant Number mean: 0.504453 max: 2.96261 max Ndt = 0.176849
diagonal:  Solving for rho, Initial residual = 0, Final residual = 0, No Iterations 0
DILUPBiCGStab:  Solving for theta, Initial residual = 0.12598, Final residual = 9.92704e-08, No Iterations 2
DICPCG:  Solving for Exner, Initial residual = 0.470651, Final residual = 0.0459234, No Iterations 26
DICPCG:  Solving for Exner, Initial residual = 0.0981785, Final residual = 0.00843068, No Iterations 41
diagonal:  Solving for rho, Initial residual = 0, Final residual = 0, No Iterations 0
DILUPBiCGStab:  Solving for theta, Initial residual = 0.0103925, Final residual = 8.75565e-08, No Iterations 2
DICPCG:  Solving for Exner, Initial residual = 0.0554934, Final residual = 0.00512234, No Iterations 2
DICPCG:  Solving for Exner, Initial residual = 0.0101393, Final residual = 9.61888e-07, No Iterations 245
time step continuity errors : sum local = 6.32125e-05, global = -6.32125e-05, cumulative = -0.0140884
Maximum rho difference fraction = 8.06186e-05
Heat error = 0.0323698
ExecutionTime = 4042.6 s  ClockTime = 4278 s

Time = 11.44

Courant Number mean: 0.504554 max: 2.95235 max Ndt = 0.173214
diagonal:  Solving for rho, Initial residual = 0, Final residual = 0, No Iterations 0
DILUPBiCGStab:  Solving for theta, Initial residual = 0.12563, Final residual = 9.74173e-08, No Iterations 2
DICPCG:  Solving for Exner, Initial residual = 0.473897, Final residual = 0.0397557, No Iterations 41
DICPCG:  Solving for Exner, Initial residual = 0.0955157, Final residual = 0.00745065, No Iterations 49
diagonal:  Solving for rho, Initial residual = 0, Final residual = 0, No Iterations 0
DILUPBiCGStab:  Solving for theta, Initial residual = 0.0102982, Final residual = 1.24826e-07, No Iterations 2
DICPCG:  Solving for Exner, Initial residual = 0.0532652, Final residual = 0.0049528, No Iterations 3
DICPCG:  Solving for Exner, Initial residual = 0.00833379, Final residual = 8.75717e-07, No Iterations 260
time step continuity errors : sum local = 6.74526e-05, global = -6.74526e-05, cumulative = -0.0141558
Maximum rho difference fraction = 8.91187e-05
Heat error = 0.0325145
ExecutionTime = 4046.14 s  ClockTime = 4281 s

Time = 11.45

Courant Number mean: 0.505015 max: 2.07842 max Ndt = 0.166515
diagonal:  Solving for rho, Initial residual = 0, Final residual = 0, No Iterations 0
DILUPBiCGStab:  Solving for theta, Initial residual = 0.125682, Final residual = 9.14275e-08, No Iterations 2
DICPCG:  Solving for Exner, Initial residual = 0.471845, Final residual = 0.0417825, No Iterations 41
DICPCG:  Solving for Exner, Initial residual = 0.0947909, Final residual = 0.00824756, No Iterations 47
diagonal:  Solving for rho, Initial residual = 0, Final residual = 0, No Iterations 0
DILUPBiCGStab:  Solving for theta, Initial residual = 0.0104938, Final residual = 1.06198e-07, No Iterations 2
DICPCG:  Solving for Exner, Initial residual = 0.0526206, Final residual = 0.00461694, No Iterations 2
DICPCG:  Solving for Exner, Initial residual = 0.00802872, Final residual = 9.2283e-07, No Iterations 263
time step continuity errors : sum local = 3.77409e-05, global = -3.77409e-05, cumulative = -0.0141935
Maximum rho difference fraction = 5.59714e-05
Heat error = 0.0326892
ExecutionTime = 4049.68 s  ClockTime = 4285 s

Time = 11.46

Courant Number mean: 0.504898 max: 1.99369 max Ndt = 0.165429
diagonal:  Solving for rho, Initial residual = 0, Final residual = 0, No Iterations 0
DILUPBiCGStab:  Solving for theta, Initial residual = 0.12614, Final residual = 9.98772e-08, No Iterations 2
DICPCG:  Solving for Exner, Initial residual = 0.471924, Final residual = 0.0443424, No Iterations 18
DICPCG:  Solving for Exner, Initial residual = 0.100288, Final residual = 0.00940145, No Iterations 33
diagonal:  Solving for rho, Initial residual = 0, Final residual = 0, No Iterations 0
DILUPBiCGStab:  Solving for theta, Initial residual = 0.0112032, Final residual = 1.13549e-07, No Iterations 2
DICPCG:  Solving for Exner, Initial residual = 0.0580185, Final residual = 0.00533447, No Iterations 2
DICPCG:  Solving for Exner, Initial residual = 0.0105193, Final residual = 9.62798e-07, No Iterations 266
time step continuity errors : sum local = 4.60799e-05, global = -4.60799e-05, cumulative = -0.0142396
Maximum rho difference fraction = 5.88752e-05
Heat error = 0.0328355
ExecutionTime = 4053.11 s  ClockTime = 4289 s

Time = 11.47

Courant Number mean: 0.505394 max: 1.91741 max Ndt = 0.16779
diagonal:  Solving for rho, Initial residual = 0, Final residual = 0, No Iterations 0
DILUPBiCGStab:  Solving for theta, Initial residual = 0.126005, Final residual = 1.11892e-07, No Iterations 2
DICPCG:  Solving for Exner, Initial residual = 0.472838, Final residual = 0.0472098, No Iterations 18
DICPCG:  Solving for Exner, Initial residual = 0.100792, Final residual = 0.0093033, No Iterations 80
diagonal:  Solving for rho, Initial residual = 0, Final residual = 0, No Iterations 0
DILUPBiCGStab:  Solving for theta, Initial residual = 0.0107289, Final residual = 1.67143e-07, No Iterations 2
DICPCG:  Solving for Exner, Initial residual = 0.0569705, Final residual = 0.00550515, No Iterations 2
DICPCG:  Solving for Exner, Initial residual = 0.0109016, Final residual = 9.54561e-07, No Iterations 260
time step continuity errors : sum local = 6.78292e-05, global = -6.78292e-05, cumulative = -0.0143075
Maximum rho difference fraction = 9.26878e-05
Heat error = 0.0329774
ExecutionTime = 4056.63 s  ClockTime = 4292 s

Time = 11.48

Courant Number mean: 0.505611 max: 2.07484 max Ndt = 0.170569
diagonal:  Solving for rho, Initial residual = 0, Final residual = 0, No Iterations 0
DILUPBiCGStab:  Solving for theta, Initial residual = 0.126295, Final residual = 1.22106e-07, No Iterations 2
DICPCG:  Solving for Exner, Initial residual = 0.475822, Final residual = 0.0450747, No Iterations 41
DICPCG:  Solving for Exner, Initial residual = 0.100067, Final residual = 0.00965058, No Iterations 49
diagonal:  Solving for rho, Initial residual = 0, Final residual = 0, No Iterations 0
DILUPBiCGStab:  Solving for theta, Initial residual = 0.0105125, Final residual = 1.41652e-07, No Iterations 2
DICPCG:  Solving for Exner, Initial residual = 0.0559167, Final residual = 0.00524919, No Iterations 2
DICPCG:  Solving for Exner, Initial residual = 0.00945911, Final residual = 9.26861e-07, No Iterations 261
time step continuity errors : sum local = 5.69208e-05, global = -5.69208e-05, cumulative = -0.0143644
Maximum rho difference fraction = 7.49428e-05
Heat error = 0.033158
ExecutionTime = 4060.16 s  ClockTime = 4296 s

Time = 11.49

Courant Number mean: 0.50672 max: 2.06273 max Ndt = 0.158641
diagonal:  Solving for rho, Initial residual = 0, Final residual = 0, No Iterations 0
DILUPBiCGStab:  Solving for theta, Initial residual = 0.126835, Final residual = 1.35971e-07, No Iterations 2
DICPCG:  Solving for Exner, Initial residual = 0.477764, Final residual = 0.0466607, No Iterations 25
DICPCG:  Solving for Exner, Initial residual = 0.0998485, Final residual = 0.00978417, No Iterations 39
diagonal:  Solving for rho, Initial residual = 0, Final residual = 0, No Iterations 0
DILUPBiCGStab:  Solving for theta, Initial residual = 0.0107011, Final residual = 1.22782e-07, No Iterations 2
DICPCG:  Solving for Exner, Initial residual = 0.0552459, Final residual = 0.00504877, No Iterations 2
DICPCG:  Solving for Exner, Initial residual = 0.010131, Final residual = 9.42221e-07, No Iterations 264
time step continuity errors : sum local = 4.74102e-05, global = -4.74102e-05, cumulative = -0.0144118
Maximum rho difference fraction = 6.59546e-05
Heat error = 0.0333287
ExecutionTime = 4063.64 s  ClockTime = 4300 s

Time = 11.5

Courant Number mean: 0.506705 max: 2.39919 max Ndt = 0.165254
diagonal:  Solving for rho, Initial residual = 0, Final residual = 0, No Iterations 0
DILUPBiCGStab:  Solving for theta, Initial residual = 0.12642, Final residual = 1.13741e-07, No Iterations 2
DICPCG:  Solving for Exner, Initial residual = 0.476821, Final residual = 0.0437948, No Iterations 24
DICPCG:  Solving for Exner, Initial residual = 0.0988796, Final residual = 0.00972173, No Iterations 34
diagonal:  Solving for rho, Initial residual = 0, Final residual = 0, No Iterations 0
DILUPBiCGStab:  Solving for theta, Initial residual = 0.0106175, Final residual = 1.01554e-07, No Iterations 2
DICPCG:  Solving for Exner, Initial residual = 0.0566359, Final residual = 0.00539262, No Iterations 2
DICPCG:  Solving for Exner, Initial residual = 0.010428, Final residual = 9.65491e-07, No Iterations 263
time step continuity errors : sum local = 6.75936e-05, global = -6.75936e-05, cumulative = -0.0144794
Maximum rho difference fraction = 9.30578e-05
Heat error = 0.033475
ExecutionTime = 4067.08 s  ClockTime = 4303 s

Time = 11.51

Courant Number mean: 0.507308 max: 3.46387 max Ndt = 0.151156
diagonal:  Solving for rho, Initial residual = 0, Final residual = 0, No Iterations 0
DILUPBiCGStab:  Solving for theta, Initial residual = 0.126374, Final residual = 1.22484e-07, No Iterations 2
DICPCG:  Solving for Exner, Initial residual = 0.479286, Final residual = 0.0471786, No Iterations 36
DICPCG:  Solving for Exner, Initial residual = 0.0972946, Final residual = 0.00903318, No Iterations 72
diagonal:  Solving for rho, Initial residual = 0, Final residual = 0, No Iterations 0
DILUPBiCGStab:  Solving for theta, Initial residual = 0.0104575, Final residual = 1.09403e-07, No Iterations 2
DICPCG:  Solving for Exner, Initial residual = 0.0541434, Final residual = 0.0051227, No Iterations 2
DICPCG:  Solving for Exner, Initial residual = 0.00944319, Final residual = 8.41377e-07, No Iterations 260
time step continuity errors : sum local = 6.49606e-05, global = -6.49606e-05, cumulative = -0.0145443
Maximum rho difference fraction = 8.62434e-05
Heat error = 0.033644
ExecutionTime = 4070.64 s  ClockTime = 4307 s

Time = 11.52

Courant Number mean: 0.507693 max: 2.94364 max Ndt = 0.164344
diagonal:  Solving for rho, Initial residual = 0, Final residual = 0, No Iterations 0
DILUPBiCGStab:  Solving for theta, Initial residual = 0.126399, Final residual = 1.38577e-07, No Iterations 2
DICPCG:  Solving for Exner, Initial residual = 0.482277, Final residual = 0.0439678, No Iterations 41
DICPCG:  Solving for Exner, Initial residual = 0.0967893, Final residual = 0.009185, No Iterations 62
diagonal:  Solving for rho, Initial residual = 0, Final residual = 0, No Iterations 0
DILUPBiCGStab:  Solving for theta, Initial residual = 0.0104824, Final residual = 8.9774e-08, No Iterations 2
DICPCG:  Solving for Exner, Initial residual = 0.0549914, Final residual = 0.0053739, No Iterations 3
DICPCG:  Solving for Exner, Initial residual = 0.00956728, Final residual = 9.73127e-07, No Iterations 263
time step continuity errors : sum local = 4.12579e-05, global = -4.12579e-05, cumulative = -0.0145856
Maximum rho difference fraction = 6.37709e-05
Heat error = 0.0338327
ExecutionTime = 4074.2 s  ClockTime = 4311 s

Time = 11.53

Courant Number mean: 0.508503 max: 2.31157 max Ndt = 0.152945
diagonal:  Solving for rho, Initial residual = 0, Final residual = 0, No Iterations 0
DILUPBiCGStab:  Solving for theta, Initial residual = 0.126445, Final residual = 1.07149e-07, No Iterations 2
#0  Foam::error::printStack(Foam::Ostream&) at ??:?
#1  Foam::sigFpe::sigHandler(int) at ??:?
#2  ? in "/lib/x86_64-linux-gnu/libc.so.6"
#3  ? in "/lib/x86_64-linux-gnu/libm.so.6"
#4  pow in "/lib/x86_64-linux-gnu/libm.so.6"
#5  Foam::pow(Foam::Field<double>&, Foam::UList<double> const&, double const&) at ??:?
#6  void Foam::pow<Foam::fvPatchField, Foam::volMesh>(Foam::GeometricField<double, Foam::fvPatchField, Foam::volMesh>&, Foam::GeometricField<double, Foam::fvPatchField, Foam::volMesh> const&, Foam::dimensioned<double> const&) in "/home/daniel/OpenFOAM/daniel-dev/platforms/linux64GccDPInt32Opt/bin/turbulentExnerFoamAdvective"
#7  Foam::tmp<Foam::GeometricField<double, Foam::fvPatchField, Foam::volMesh> > Foam::pow<Foam::fvPatchField, Foam::volMesh>(Foam::GeometricField<double, Foam::fvPatchField, Foam::volMesh> const&, Foam::dimensioned<double> const&) in "/home/daniel/OpenFOAM/daniel-dev/platforms/linux64GccDPInt32Opt/bin/turbulentExnerFoamAdvective"
#8  ? in "/home/daniel/OpenFOAM/daniel-dev/platforms/linux64GccDPInt32Opt/bin/turbulentExnerFoamAdvective"
#9  __libc_start_main in "/lib/x86_64-linux-gnu/libc.so.6"
#10  ? in "/home/daniel/OpenFOAM/daniel-dev/platforms/linux64GccDPInt32Opt/bin/turbulentExnerFoamAdvective"
