/*---------------------------------------------------------------------------*\
| =========                 |                                                 |
| \\      /  F ield         | OpenFOAM: The Open Source CFD Toolbox           |
|  \\    /   O peration     | Version:  dev                                   |
|   \\  /    A nd           | Web:      www.OpenFOAM.org                      |
|    \\/     M anipulation  |                                                 |
\*---------------------------------------------------------------------------*/
Build  : dev-907bb58e9f78
Exec   : moistFoam_HW
Date   : Jan 24 2018
Time   : 17:02:21
Host   : "daniel-XPS-15-9560"
PID    : 23225
I/O    : uncollated
Case   : /home/daniel/OpenFOAM/daniel-dev/run/danCases/moistBubble/moistFoam_DS
nProcs : 1
sigFpe : Enabling floating point exception trapping (FOAM_SIGFPE).
fileModificationChecking : Monitoring run-time modified files using timeStampMaster (fileModificationSkew 10)
allowSystemOperations : Allowing user-supplied system call operations

// * * * * * * * * * * * * * * * * * * * * * * * * * * * * * * * * * * * * * //
Create time

Create mesh for time = 0


Reading environmentalProperties
Making the boundary faces orthogonal
Reading thermophysical properties

Reading in air and water phases
Reading in theta
Calculating, density, Exner, pressure and temperature from atmos and theta


--> FOAM FATAL ERROR: 
cannot find file "/home/daniel/OpenFOAM/daniel-dev/run/danCases/moistBubble/moistFoam_DS/0/Exner"

    From function virtual Foam::autoPtr<Foam::ISstream> Foam::fileOperations::uncollatedFileOperation::readStream(Foam::regIOobject&, const Foam::fileName&, const Foam::word&, bool) const
    in file global/fileOperations/uncollatedFileOperation/uncollatedFileOperation.C at line 505.

FOAM exiting

