/*---------------------------------------------------------------------------*\
  =========                 |
  \\      /  F ield         | OpenFOAM: The Open Source CFD Toolbox
   \\    /   O peration     | Website:  https://openfoam.org
    \\  /    A nd           | Version:  dev
     \\/     M anipulation  |
\*---------------------------------------------------------------------------*/
Build  : dev-ecaa6fb96624
Exec   : partitionedTurbulentFoam
Date   : Nov 14 2018
Time   : 11:00:44
Host   : "daniel-XPS-15-9560"
PID    : 3766
I/O    : uncollated
Case   : /media/daniel/STORAGE/OpenFOAM-run/danRun/partitionedTurbulentFoam/RayleighBenard/noTransferViscous_cyclic
nProcs : 1
sigFpe : Enabling floating point exception trapping (FOAM_SIGFPE).
fileModificationChecking : Monitoring run-time modified files using timeStampMaster (fileModificationSkew 10)
allowSystemOperations : Allowing user-supplied system call operations

// * * * * * * * * * * * * * * * * * * * * * * * * * * * * * * * * * * * * * //
Create time

Create mesh for time = 0


Reading environmentalProperties
Reading thermophysical properties

Cp = 1005 speedSound = speedSound [0 1 -1 0 0 0 0] 347.745 kappa = kappa [0 0 0 0 0 0 0] 0.286267 R = 287.698 RR = 8314.47 Cv = Cv [0 2 -2 -1 0 0 0] 717.302
Maximum acousitic Courant number = ((max(deltaCoeffs)*deltaT)*speedSound) [0 0 0 0 0 0 0] 347.745

Reading environmentalProperties
Making the boundary faces orthogonal
Reading field Exner

Setting the thermodynamics for each partition

Selecting thermodynamics package 
{
    type            heRhoThermo;
    mixture         pureMixture;
    transport       const;
    thermo          hConst;
    equationOfState perfectGas;
    specie          specie;
    energy          sensibleEnthalpy;
}

Selecting thermodynamics package 
{
    type            heRhoThermo;
    mixture         pureMixture;
    transport       const;
    thermo          hConst;
    equationOfState perfectGas;
    specie          specie;
    energy          sensibleEnthalpy;
}

Reading in sigma in each partition

Setting rho for each partition

Reading in theta in each partition

Calculating density and density in each partition and density weighted theta sum

Initialising sigmaRhof and sigmaf - values on the faces

Reading in the velocity in each partition

Calculating the mass flux and volume flux in each partition

Calculating the cell centre velocity, u, in each partition

Storing necessary old times and rates of change

Initialising the compressibility

Initialising the drag between partitions
Initialising the mass transfer between partitions

Initialising turbulence in each partition

Selecting turbulence model type laminar
Selecting laminar stress model Stokes
Selecting turbulence model type laminar
Selecting laminar stress model Stokes
Initialising diagnostics file diags.dat

Available energy = -903.902
energyInitTot = 249316
Initial KE = 0
Initial PE = 5.90948
Initial IE = 249310

Starting time loop

Time = 0.01

Courant Number mean: 0 max: 0 max Ndt = 0.01481 partition maximums: 2{0}
DILUPBiCGStab:  Solving for theta.stable, Initial residual = 0.0177231, Final residual = 9.63548e-07, No Iterations 36
DILUPBiCGStab:  Solving for theta.buoyant, Initial residual = 0.000350559, Final residual = 1.43765e-07, No Iterations 1
DICPCG:  Solving for Exner, Initial residual = 0.928562, Final residual = 0.0396166, No Iterations 1
DICPCG:  Solving for Exner, Initial residual = 0.328657, Final residual = 0.0315831, No Iterations 5
DILUPBiCGStab:  Solving for theta.stable, Initial residual = 0.0188939, Final residual = 9.76231e-07, No Iterations 15
DILUPBiCGStab:  Solving for theta.buoyant, Initial residual = 0.000129494, Final residual = 5.46352e-08, No Iterations 1
DICPCG:  Solving for Exner, Initial residual = 0.0473434, Final residual = 0.00455151, No Iterations 16
DICPCG:  Solving for Exner, Initial residual = 0.00492281, Final residual = 0.000491957, No Iterations 91
DILUPBiCGStab:  Solving for theta.stable, Initial residual = 0.0188787, Final residual = 9.14964e-07, No Iterations 16
DILUPBiCGStab:  Solving for theta.buoyant, Initial residual = 0.000153331, Final residual = 5.67177e-08, No Iterations 1
DICPCG:  Solving for Exner, Initial residual = 0.0147892, Final residual = 0.00109949, No Iterations 23
DICPCG:  Solving for Exner, Initial residual = 0.00147777, Final residual = 0.000139083, No Iterations 137
DILUPBiCGStab:  Solving for theta.stable, Initial residual = 0.0188737, Final residual = 9.54627e-07, No Iterations 16
DILUPBiCGStab:  Solving for theta.buoyant, Initial residual = 0.000139618, Final residual = 5.49959e-08, No Iterations 1
DICPCG:  Solving for Exner, Initial residual = 0.00894532, Final residual = 0.000651953, No Iterations 23
DICPCG:  Solving for Exner, Initial residual = 0.000876807, Final residual = 7.22679e-05, No Iterations 140
DILUPBiCGStab:  Solving for theta.stable, Initial residual = 0.0188707, Final residual = 9.95788e-07, No Iterations 15
DILUPBiCGStab:  Solving for theta.buoyant, Initial residual = 0.000131463, Final residual = 5.39278e-08, No Iterations 1
DICPCG:  Solving for Exner, Initial residual = 0.00537828, Final residual = 0.000386714, No Iterations 23
DICPCG:  Solving for Exner, Initial residual = 0.000522374, Final residual = 4.04066e-05, No Iterations 140
DILUPBiCGStab:  Solving for theta.stable, Initial residual = 0.0188688, Final residual = 9.95398e-07, No Iterations 15
DILUPBiCGStab:  Solving for theta.buoyant, Initial residual = 0.000126631, Final residual = 5.33084e-08, No Iterations 1
DICPCG:  Solving for Exner, Initial residual = 0.00322694, Final residual = 0.000229789, No Iterations 23
DICPCG:  Solving for Exner, Initial residual = 0.000311612, Final residual = 2.37916e-05, No Iterations 140
DILUPBiCGStab:  Solving for theta.stable, Initial residual = 0.0188678, Final residual = 9.65453e-07, No Iterations 15
DILUPBiCGStab:  Solving for theta.buoyant, Initial residual = 0.000123757, Final residual = 5.29431e-08, No Iterations 1
DICPCG:  Solving for Exner, Initial residual = 0.00193425, Final residual = 0.000136635, No Iterations 23
DICPCG:  Solving for Exner, Initial residual = 0.000185917, Final residual = 1.39036e-05, No Iterations 140
DILUPBiCGStab:  Solving for theta.stable, Initial residual = 0.0188672, Final residual = 9.43384e-07, No Iterations 15
DILUPBiCGStab:  Solving for theta.buoyant, Initial residual = 0.000122047, Final residual = 5.27266e-08, No Iterations 1
DICPCG:  Solving for Exner, Initial residual = 0.00115877, Final residual = 8.1304e-05, No Iterations 23
DICPCG:  Solving for Exner, Initial residual = 0.000110952, Final residual = 8.03487e-06, No Iterations 140
DILUPBiCGStab:  Solving for theta.stable, Initial residual = 0.0188669, Final residual = 9.27767e-07, No Iterations 15
DILUPBiCGStab:  Solving for theta.buoyant, Initial residual = 0.000121029, Final residual = 5.25979e-08, No Iterations 1
DICPCG:  Solving for Exner, Initial residual = 0.000693997, Final residual = 4.84133e-05, No Iterations 23
DICPCG:  Solving for Exner, Initial residual = 6.62362e-05, Final residual = 4.95991e-06, No Iterations 140
DILUPBiCGStab:  Solving for theta.stable, Initial residual = 0.0188667, Final residual = 9.16706e-07, No Iterations 15
DILUPBiCGStab:  Solving for theta.buoyant, Initial residual = 0.000120424, Final residual = 5.2522e-08, No Iterations 1
DICPCG:  Solving for Exner, Initial residual = 0.000415577, Final residual = 2.88463e-05, No Iterations 23
DICPCG:  Solving for Exner, Initial residual = 3.9555e-05, Final residual = 9.49194e-07, No Iterations 152
sigma[0] goes from 9.97295e-10 to 1.00641e-09
time step continuity errors : sum local = 1.64442e-06, global = 1.79798e-13, cumulative = 1.79798e-13
Maximum rho difference fraction = 0.00104295
ExecutionTime = 29.91 s  ClockTime = 30 s

Time = 0.02

Courant Number mean: 0.00240729 max: 0.00268686 max Ndt = 0.0147174 partition maximums: 2(0.00245804 0.00268698)
DILUPBiCGStab:  Solving for theta.stable, Initial residual = 0.01887, Final residual = 8.7923e-07, No Iterations 22
DILUPBiCGStab:  Solving for theta.buoyant, Initial residual = 0.0003664, Final residual = 1.50229e-07, No Iterations 1
DICPCG:  Solving for Exner, Initial residual = 0.998526, Final residual = 0.0611192, No Iterations 2
DICPCG:  Solving for Exner, Initial residual = 0.630993, Final residual = 0.058733, No Iterations 6
DILUPBiCGStab:  Solving for theta.stable, Initial residual = 0.0189662, Final residual = 9.85087e-07, No Iterations 22
DILUPBiCGStab:  Solving for theta.buoyant, Initial residual = 0.000337708, Final residual = 1.11075e-07, No Iterations 1
DICPCG:  Solving for Exner, Initial residual = 0.137512, Final residual = 0.010385, No Iterations 14
DICPCG:  Solving for Exner, Initial residual = 0.0129846, Final residual = 0.00103347, No Iterations 136
DILUPBiCGStab:  Solving for theta.stable, Initial residual = 0.0189183, Final residual = 9.37825e-07, No Iterations 14
DILUPBiCGStab:  Solving for theta.buoyant, Initial residual = 0.000291863, Final residual = 1.02252e-07, No Iterations 1
DICPCG:  Solving for Exner, Initial residual = 0.0406624, Final residual = 0.00346274, No Iterations 15
DICPCG:  Solving for Exner, Initial residual = 0.00448487, Final residual = 0.000429609, No Iterations 115
DILUPBiCGStab:  Solving for theta.stable, Initial residual = 0.0188983, Final residual = 9.52139e-07, No Iterations 14
DILUPBiCGStab:  Solving for theta.buoyant, Initial residual = 0.000261024, Final residual = 9.97504e-08, No Iterations 1
DICPCG:  Solving for Exner, Initial residual = 0.025908, Final residual = 0.00226579, No Iterations 15
DICPCG:  Solving for Exner, Initial residual = 0.00276494, Final residual = 0.000273191, No Iterations 141
DILUPBiCGStab:  Solving for theta.stable, Initial residual = 0.0188869, Final residual = 9.48341e-07, No Iterations 14
DILUPBiCGStab:  Solving for theta.buoyant, Initial residual = 0.000242712, Final residual = 9.73882e-08, No Iterations 1
DICPCG:  Solving for Exner, Initial residual = 0.0159194, Final residual = 0.00141572, No Iterations 15
DICPCG:  Solving for Exner, Initial residual = 0.0016994, Final residual = 0.000162172, No Iterations 144
DILUPBiCGStab:  Solving for theta.stable, Initial residual = 0.0188802, Final residual = 9.97668e-07, No Iterations 14
DILUPBiCGStab:  Solving for theta.buoyant, Initial residual = 0.000231747, Final residual = 9.60054e-08, No Iterations 1
DICPCG:  Solving for Exner, Initial residual = 0.00962883, Final residual = 0.000873918, No Iterations 15
DICPCG:  Solving for Exner, Initial residual = 0.00103907, Final residual = 0.000102697, No Iterations 144
DILUPBiCGStab:  Solving for theta.stable, Initial residual = 0.0188764, Final residual = 9.95723e-07, No Iterations 14
DILUPBiCGStab:  Solving for theta.buoyant, Initial residual = 0.000225182, Final residual = 9.52204e-08, No Iterations 1
DICPCG:  Solving for Exner, Initial residual = 0.005787, Final residual = 0.000538715, No Iterations 15
DICPCG:  Solving for Exner, Initial residual = 0.000634695, Final residual = 6.15842e-05, No Iterations 144
DILUPBiCGStab:  Solving for theta.stable, Initial residual = 0.0188741, Final residual = 9.522e-07, No Iterations 14
DILUPBiCGStab:  Solving for theta.buoyant, Initial residual = 0.000221263, Final residual = 9.47592e-08, No Iterations 1
DICPCG:  Solving for Exner, Initial residual = 0.00347169, Final residual = 0.00033276, No Iterations 15
DICPCG:  Solving for Exner, Initial residual = 0.000388303, Final residual = 3.73265e-05, No Iterations 143
DILUPBiCGStab:  Solving for theta.stable, Initial residual = 0.0188727, Final residual = 9.73193e-07, No Iterations 14
DILUPBiCGStab:  Solving for theta.buoyant, Initial residual = 0.000218925, Final residual = 9.44878e-08, No Iterations 1
DICPCG:  Solving for Exner, Initial residual = 0.00208107, Final residual = 0.000206175, No Iterations 15
DICPCG:  Solving for Exner, Initial residual = 0.000237936, Final residual = 1.8186e-05, No Iterations 143
DILUPBiCGStab:  Solving for theta.stable, Initial residual = 0.0188721, Final residual = 9.89494e-07, No Iterations 14
DILUPBiCGStab:  Solving for theta.buoyant, Initial residual = 0.00021753, Final residual = 9.43293e-08, No Iterations 1
DICPCG:  Solving for Exner, Initial residual = 0.00124712, Final residual = 0.000102501, No Iterations 16
DICPCG:  Solving for Exner, Initial residual = 0.000123156, Final residual = 8.70888e-07, No Iterations 162
sigma[0] goes from 9.97522e-10 to 1.00641e-09
time step continuity errors : sum local = 5.45009e-06, global = 4.62943e-13, cumulative = 6.42742e-13
Maximum rho difference fraction = 0.0010901
ExecutionTime = 58.95 s  ClockTime = 60 s

End

