/*---------------------------------------------------------------------------*\
| =========                 |                                                 |
| \\      /  F ield         | OpenFOAM: The Open Source CFD Toolbox           |
|  \\    /   O peration     | Version:  dev                                   |
|   \\  /    A nd           | Web:      www.OpenFOAM.org                      |
|    \\/     M anipulation  |                                                 |
\*---------------------------------------------------------------------------*/
Build  : dev-c1b380c8677a
Exec   : exnerFoamTurbulence
Date   : May 13 2018
Time   : 15:36:18
Host   : "daniel-XPS-15-9560"
PID    : 19999
I/O    : uncollated
Case   : /home/daniel/OpenFOAM/daniel-dev/run/danCases/exnerFoamTurbulence/coarseWithTurbulence
nProcs : 1
sigFpe : Enabling floating point exception trapping (FOAM_SIGFPE).
fileModificationChecking : Monitoring run-time modified files using timeStampMaster (fileModificationSkew 10)
allowSystemOperations : Allowing user-supplied system call operations

// * * * * * * * * * * * * * * * * * * * * * * * * * * * * * * * * * * * * * //
Create time

Create mesh for time = 0


Reading environmentalProperties
Reading thermophysical properties

Cp = 1005 speedSound = speedSound [0 1 -1 0 0 0 0] 347.745 kappa = kappa [0 0 0 0 0 0 0] 0.286267 R = 287.698 RR = 8314.47 Cv = Cv [0 2 -2 -1 0 0 0] 717.302
Maximum acousitic Courant number = ((max(deltaCoeffs)*deltaT)*speedSound) [0 0 0 0 0 0 0] 6.9549
Making the boundary faces orthogonal
Reading thermophysical properties

Selecting thermodynamics package 
{
    type            hePsiThermo;
    energy          sensibleInternalEnergy;
    specie          specie;
    equationOfState perfectGas;
    thermo          hConst;
    transport       const;
    mixture         pureMixture;
}

Reading field Uf

Reading field Exner

Reading field theta

Maximum sponge value = 0
Creating field rho

Calculating face flux field phi

Creating turbulence model

Selecting turbulence model type LES
Selecting LES turbulence model Smagorinsky
Selecting LES delta type cubeRootVol
--> FOAM Warning : 
    From function void Foam::LESModels::cubeRootVolDelta::calcDelta()
    in file LES/LESdeltas/cubeRootVolDelta/cubeRootVolDelta.C at line 55
    Case is 2D, LES is not strictly applicable

SmagorinskyCoeffs
{
    Ck              0.094;
    Ce              1.048;
}

Initialising total energy file energy.dat

KE dimensions = [1 -1 -2 0 0 0 0]
internalEnergy dimensions = [1 -1 -2 0 0 0 0]
potentialEnergy dimensions = [1 -1 -2 0 0 0 0]
Vtot = sum(V) [0 3 0 0 0 0 0] 4e+11
KEInitTot = (domainIntegrate(KE)|sum(V)) [1 -1 -2 0 0 0 0] 0
internalInitTot = (domainIntegrate(internalEnergy)|sum(V)) [1 -1 -2 0 0 0 0] 84511.8
potentialInitTot = (domainIntegrate(potentialEnergy)|sum(V)) [1 -1 -2 0 0 0 0] 31360.7

Starting time loop

Time = 2

Courant Number mean: 0 max: 0 max Ndt = 0.0141569
diagonal:  Solving for rho, Initial residual = 0, Final residual = 0, No Iterations 0
DICPBiCGStab:  Solving for theta, Initial residual = 1.78651e-13, Final residual = 1.78651e-13, No Iterations 0
DICPCG:  Solving for Exner, Initial residual = 4.61e-06, Final residual = 3.00092e-09, No Iterations 9
DICPCG:  Solving for Exner, Initial residual = 3.11121e-09, Final residual = 6.29882e-11, No Iterations 5
diagonal:  Solving for rho, Initial residual = 0, Final residual = 0, No Iterations 0
DICPBiCGStab:  Solving for theta, Initial residual = 1.76623e-05, Final residual = 8.83907e-22, No Iterations 1
DICPCG:  Solving for Exner, Initial residual = 2.15973e-06, Final residual = 1.6839e-09, No Iterations 8
DICPCG:  Solving for Exner, Initial residual = 1.70837e-09, Final residual = 7.85533e-11, No Iterations 4
diagonal:  Solving for rho, Initial residual = 0, Final residual = 0, No Iterations 0
DICPBiCGStab:  Solving for theta, Initial residual = 8.64913e-07, Final residual = 3.88155e-23, No Iterations 1
time step continuity errors : sum local = 3.46886e-11, global = 1.30503e-11, cumulative = 1.30503e-11
Maximum rho difference fraction = 4.84295e-10
Heat error = 7.99463e-15
ExecutionTime = 0.33 s  ClockTime = 0 s

Time = 4

Courant Number mean: 1.36066e-05 max: 0.00114053 max Ndt = 0.0141574
diagonal:  Solving for rho, Initial residual = 0, Final residual = 0, No Iterations 0
DICPBiCGStab:  Solving for theta, Initial residual = 3.51528e-05, Final residual = 2.04446e-15, No Iterations 1
DICPCG:  Solving for Exner, Initial residual = 6.35283e-06, Final residual = 6.17523e-09, No Iterations 8
DICPCG:  Solving for Exner, Initial residual = 6.32871e-09, Final residual = 5.38222e-11, No Iterations 6
diagonal:  Solving for rho, Initial residual = 0, Final residual = 0, No Iterations 0
DICPBiCGStab:  Solving for theta, Initial residual = 1.83382e-05, Final residual = 1.07941e-15, No Iterations 1
DICPCG:  Solving for Exner, Initial residual = 1.40121e-06, Final residual = 5.8136e-10, No Iterations 9
DICPCG:  Solving for Exner, Initial residual = 5.88596e-10, Final residual = 5.90316e-11, No Iterations 3
diagonal:  Solving for rho, Initial residual = 0, Final residual = 0, No Iterations 0
DICPBiCGStab:  Solving for theta, Initial residual = 4.0957e-07, Final residual = 2.54621e-17, No Iterations 1
time step continuity errors : sum local = 4.48726e-11, global = 2.34524e-11, cumulative = 3.65027e-11
Maximum rho difference fraction = 6.33872e-10
Heat error = 3.93179e-16
ExecutionTime = 0.58 s  ClockTime = 0 s

Time = 6

Courant Number mean: 3.09366e-05 max: 0.00195239 max Ndt = 0.0141587
diagonal:  Solving for rho, Initial residual = 0, Final residual = 0, No Iterations 0
DICPBiCGStab:  Solving for theta, Initial residual = 7.26269e-05, Final residual = 7.15596e-15, No Iterations 1
DICPCG:  Solving for Exner, Initial residual = 6.66562e-06, Final residual = 5.12628e-09, No Iterations 8
DICPCG:  Solving for Exner, Initial residual = 5.32144e-09, Final residual = 9.73503e-11, No Iterations 5
diagonal:  Solving for rho, Initial residual = 0, Final residual = 0, No Iterations 0
DICPBiCGStab:  Solving for theta, Initial residual = 1.74149e-05, Final residual = 1.80128e-15, No Iterations 1
DICPCG:  Solving for Exner, Initial residual = 2.08938e-06, Final residual = 1.30446e-09, No Iterations 8
DICPCG:  Solving for Exner, Initial residual = 1.41836e-09, Final residual = 6.41102e-11, No Iterations 4
diagonal:  Solving for rho, Initial residual = 0, Final residual = 0, No Iterations 0
DICPBiCGStab:  Solving for theta, Initial residual = 7.65893e-07, Final residual = 7.95598e-17, No Iterations 1
time step continuity errors : sum local = 5.38472e-11, global = 3.35177e-11, cumulative = 7.00205e-11
Maximum rho difference fraction = 9.26724e-10
Heat error = 2.88331e-15
ExecutionTime = 0.83 s  ClockTime = 0 s

Time = 8

Courant Number mean: 5.4e-05 max: 0.00247586 max Ndt = 0.0141602
diagonal:  Solving for rho, Initial residual = 0, Final residual = 0, No Iterations 0
DICPBiCGStab:  Solving for theta, Initial residual = 0.000108437, Final residual = 7.9938e-15, No Iterations 1
DICPCG:  Solving for Exner, Initial residual = 7.59932e-06, Final residual = 5.40881e-09, No Iterations 8
DICPCG:  Solving for Exner, Initial residual = 5.90838e-09, Final residual = 4.88927e-11, No Iterations 6
diagonal:  Solving for rho, Initial residual = 0, Final residual = 0, No Iterations 0
DICPBiCGStab:  Solving for theta, Initial residual = 1.48977e-05, Final residual = 1.22355e-15, No Iterations 1
DICPCG:  Solving for Exner, Initial residual = 2.74619e-06, Final residual = 1.43513e-09, No Iterations 8
DICPCG:  Solving for Exner, Initial residual = 1.47859e-09, Final residual = 6.91453e-11, No Iterations 4
diagonal:  Solving for rho, Initial residual = 0, Final residual = 0, No Iterations 0
DICPBiCGStab:  Solving for theta, Initial residual = 6.19365e-07, Final residual = 4.90134e-17, No Iterations 1
time step continuity errors : sum local = 7.27591e-11, global = 4.3692e-11, cumulative = 1.13712e-10
Maximum rho difference fraction = 1.47168e-09
Heat error = -7.86357e-16
ExecutionTime = 1.07 s  ClockTime = 1 s

Time = 10

Courant Number mean: 8.31954e-05 max: 0.00289804 max Ndt = 0.0141616
diagonal:  Solving for rho, Initial residual = 0, Final residual = 0, No Iterations 0
DICPBiCGStab:  Solving for theta, Initial residual = 0.000138413, Final residual = 1.06565e-14, No Iterations 1
DICPCG:  Solving for Exner, Initial residual = 9.29209e-06, Final residual = 6.47775e-09, No Iterations 8
DICPCG:  Solving for Exner, Initial residual = 6.97719e-09, Final residual = 5.47981e-11, No Iterations 6
diagonal:  Solving for rho, Initial residual = 0, Final residual = 0, No Iterations 0
DICPBiCGStab:  Solving for theta, Initial residual = 1.21779e-05, Final residual = 9.54115e-16, No Iterations 1
DICPCG:  Solving for Exner, Initial residual = 2.9293e-06, Final residual = 1.73229e-09, No Iterations 8
DICPCG:  Solving for Exner, Initial residual = 1.77514e-09, Final residual = 8.03458e-11, No Iterations 4
diagonal:  Solving for rho, Initial residual = 0, Final residual = 0, No Iterations 0
DICPBiCGStab:  Solving for theta, Initial residual = 4.68543e-07, Final residual = 3.65209e-17, No Iterations 1
time step continuity errors : sum local = 9.81152e-11, global = 5.50201e-11, cumulative = 1.68733e-10
Maximum rho difference fraction = 2.17369e-09
Heat error = 5.11132e-15
ExecutionTime = 1.33 s  ClockTime = 1 s

Time = 12

Courant Number mean: 0.00011737 max: 0.00338775 max Ndt = 0.014163
diagonal:  Solving for rho, Initial residual = 0, Final residual = 0, No Iterations 0
DICPBiCGStab:  Solving for theta, Initial residual = 0.000161905, Final residual = 1.72419e-14, No Iterations 1
DICPCG:  Solving for Exner, Initial residual = 1.03079e-05, Final residual = 7.97399e-09, No Iterations 8
DICPCG:  Solving for Exner, Initial residual = 9.31629e-09, Final residual = 6.55041e-11, No Iterations 6
diagonal:  Solving for rho, Initial residual = 0, Final residual = 0, No Iterations 0
DICPBiCGStab:  Solving for theta, Initial residual = 1.0945e-05, Final residual = 1.21644e-15, No Iterations 1
DICPCG:  Solving for Exner, Initial residual = 3.02373e-06, Final residual = 1.66096e-09, No Iterations 8
DICPCG:  Solving for Exner, Initial residual = 1.80592e-09, Final residual = 7.70756e-11, No Iterations 4
diagonal:  Solving for rho, Initial residual = 0, Final residual = 0, No Iterations 0
DICPBiCGStab:  Solving for theta, Initial residual = 5.96348e-07, Final residual = 6.33342e-17, No Iterations 1
time step continuity errors : sum local = 1.20295e-10, global = 6.46996e-11, cumulative = 2.33432e-10
Maximum rho difference fraction = 2.6125e-09
Heat error = -2.62119e-16
ExecutionTime = 1.58 s  ClockTime = 1 s

Time = 14

Courant Number mean: 0.000154451 max: 0.00399595 max Ndt = 0.0141648
diagonal:  Solving for rho, Initial residual = 0, Final residual = 0, No Iterations 0
DICPBiCGStab:  Solving for theta, Initial residual = 0.000182605, Final residual = 2.46893e-14, No Iterations 1
DICPCG:  Solving for Exner, Initial residual = 1.09525e-05, Final residual = 8.6871e-09, No Iterations 8
DICPCG:  Solving for Exner, Initial residual = 1.008e-08, Final residual = 7.20178e-11, No Iterations 6
diagonal:  Solving for rho, Initial residual = 0, Final residual = 0, No Iterations 0
DICPBiCGStab:  Solving for theta, Initial residual = 1.15115e-05, Final residual = 1.62865e-15, No Iterations 1
DICPCG:  Solving for Exner, Initial residual = 3.03479e-06, Final residual = 1.61451e-09, No Iterations 8
DICPCG:  Solving for Exner, Initial residual = 1.67477e-09, Final residual = 7.56464e-11, No Iterations 4
diagonal:  Solving for rho, Initial residual = 0, Final residual = 0, No Iterations 0
DICPBiCGStab:  Solving for theta, Initial residual = 3.93945e-07, Final residual = 6.52739e-17, No Iterations 1
time step continuity errors : sum local = 1.34109e-10, global = 6.60933e-11, cumulative = 2.99526e-10
Maximum rho difference fraction = 2.65809e-09
Heat error = 9.17417e-16
ExecutionTime = 1.82 s  ClockTime = 1 s

Time = 16

Courant Number mean: 0.000192792 max: 0.00466379 max Ndt = 0.0141671
diagonal:  Solving for rho, Initial residual = 0, Final residual = 0, No Iterations 0
DICPBiCGStab:  Solving for theta, Initial residual = 0.000205046, Final residual = 3.81442e-14, No Iterations 1
DICPCG:  Solving for Exner, Initial residual = 1.08091e-05, Final residual = 8.43188e-09, No Iterations 8
DICPCG:  Solving for Exner, Initial residual = 9.87305e-09, Final residual = 6.79509e-11, No Iterations 6
diagonal:  Solving for rho, Initial residual = 0, Final residual = 0, No Iterations 0
DICPBiCGStab:  Solving for theta, Initial residual = 1.28022e-05, Final residual = 2.43367e-15, No Iterations 1
DICPCG:  Solving for Exner, Initial residual = 3.19671e-06, Final residual = 1.8981e-09, No Iterations 8
DICPCG:  Solving for Exner, Initial residual = 1.99398e-09, Final residual = 8.325e-11, No Iterations 4
diagonal:  Solving for rho, Initial residual = 0, Final residual = 0, No Iterations 0
DICPBiCGStab:  Solving for theta, Initial residual = 2.25685e-07, Final residual = 4.71362e-17, No Iterations 1
time step continuity errors : sum local = 1.29368e-10, global = 6.17834e-11, cumulative = 3.61309e-10
Maximum rho difference fraction = 1.96663e-09
Heat error = 1.17954e-15
ExecutionTime = 2.07 s  ClockTime = 2 s

Time = 18

Courant Number mean: 0.000231264 max: 0.00532089 max Ndt = 0.01417
diagonal:  Solving for rho, Initial residual = 0, Final residual = 0, No Iterations 0
DICPBiCGStab:  Solving for theta, Initial residual = 0.00023091, Final residual = 6.02938e-14, No Iterations 1
DICPCG:  Solving for Exner, Initial residual = 1.00564e-05, Final residual = 7.6974e-09, No Iterations 8
DICPCG:  Solving for Exner, Initial residual = 9.13693e-09, Final residual = 6.45704e-11, No Iterations 6
diagonal:  Solving for rho, Initial residual = 0, Final residual = 0, No Iterations 0
DICPBiCGStab:  Solving for theta, Initial residual = 1.3545e-05, Final residual = 3.5748e-15, No Iterations 1
DICPCG:  Solving for Exner, Initial residual = 3.59759e-06, Final residual = 2.2813e-09, No Iterations 8
DICPCG:  Solving for Exner, Initial residual = 2.36572e-09, Final residual = 9.18671e-11, No Iterations 4
diagonal:  Solving for rho, Initial residual = 0, Final residual = 0, No Iterations 0
DICPBiCGStab:  Solving for theta, Initial residual = 3.14575e-07, Final residual = 7.77895e-17, No Iterations 1
time step continuity errors : sum local = 1.18334e-10, global = 5.40744e-11, cumulative = 4.15383e-10
Maximum rho difference fraction = 1.47637e-09
Heat error = -3.80073e-15
ExecutionTime = 2.32 s  ClockTime = 2 s

Time = 20

Courant Number mean: 0.000270091 max: 0.00594682 max Ndt = 0.0141732
diagonal:  Solving for rho, Initial residual = 0, Final residual = 0, No Iterations 0
DICPBiCGStab:  Solving for theta, Initial residual = 0.000258613, Final residual = 8.75117e-14, No Iterations 1
DICPCG:  Solving for Exner, Initial residual = 1.11991e-05, Final residual = 8.26898e-09, No Iterations 8
DICPCG:  Solving for Exner, Initial residual = 9.87717e-09, Final residual = 7.44701e-11, No Iterations 6
diagonal:  Solving for rho, Initial residual = 0, Final residual = 0, No Iterations 0
DICPBiCGStab:  Solving for theta, Initial residual = 1.33048e-05, Final residual = 4.58422e-15, No Iterations 1
DICPCG:  Solving for Exner, Initial residual = 3.75151e-06, Final residual = 2.5629e-09, No Iterations 8
DICPCG:  Solving for Exner, Initial residual = 2.61993e-09, Final residual = 4.82055e-11, No Iterations 5
diagonal:  Solving for rho, Initial residual = 0, Final residual = 0, No Iterations 0
DICPBiCGStab:  Solving for theta, Initial residual = 2.06828e-07, Final residual = 8.7723e-17, No Iterations 1
time step continuity errors : sum local = 1.21804e-10, global = 5.04972e-11, cumulative = 4.65881e-10
Maximum rho difference fraction = 1.66185e-09
Heat error = 0
ExecutionTime = 2.57 s  ClockTime = 2 s

Time = 22

Courant Number mean: 0.000311662 max: 0.00655789 max Ndt = 0.0141768
diagonal:  Solving for rho, Initial residual = 0, Final residual = 0, No Iterations 0
DICPBiCGStab:  Solving for theta, Initial residual = 0.000285607, Final residual = 1.18203e-13, No Iterations 1
DICPCG:  Solving for Exner, Initial residual = 1.24648e-05, Final residual = 8.86296e-09, No Iterations 8
DICPCG:  Solving for Exner, Initial residual = 1.11543e-08, Final residual = 8.85683e-11, No Iterations 6
diagonal:  Solving for rho, Initial residual = 0, Final residual = 0, No Iterations 0
DICPBiCGStab:  Solving for theta, Initial residual = 1.25222e-05, Final residual = 5.31047e-15, No Iterations 1
DICPCG:  Solving for Exner, Initial residual = 3.52666e-06, Final residual = 2.52139e-09, No Iterations 8
DICPCG:  Solving for Exner, Initial residual = 2.56386e-09, Final residual = 4.55702e-11, No Iterations 5
diagonal:  Solving for rho, Initial residual = 0, Final residual = 0, No Iterations 0
DICPBiCGStab:  Solving for theta, Initial residual = 9.9573e-08, Final residual = 4.78822e-17, No Iterations 1
time step continuity errors : sum local = 1.24845e-10, global = 4.7215e-11, cumulative = 5.13096e-10
Maximum rho difference fraction = 1.83216e-09
Heat error = 5.24238e-15
ExecutionTime = 2.82 s  ClockTime = 2 s

Time = 24

Courant Number mean: 0.000360468 max: 0.00716644 max Ndt = 0.0141806
diagonal:  Solving for rho, Initial residual = 0, Final residual = 0, No Iterations 0
DICPBiCGStab:  Solving for theta, Initial residual = 0.000310604, Final residual = 1.53563e-13, No Iterations 1
DICPCG:  Solving for Exner, Initial residual = 1.28351e-05, Final residual = 8.61188e-09, No Iterations 8
DICPCG:  Solving for Exner, Initial residual = 1.19665e-08, Final residual = 9.12229e-11, No Iterations 6
diagonal:  Solving for rho, Initial residual = 0, Final residual = 0, No Iterations 0
DICPBiCGStab:  Solving for theta, Initial residual = 1.18533e-05, Final residual = 5.99934e-15, No Iterations 1
DICPCG:  Solving for Exner, Initial residual = 3.72067e-06, Final residual = 2.52232e-09, No Iterations 8
DICPCG:  Solving for Exner, Initial residual = 2.52743e-09, Final residual = 4.48498e-11, No Iterations 5
diagonal:  Solving for rho, Initial residual = 0, Final residual = 0, No Iterations 0
DICPBiCGStab:  Solving for theta, Initial residual = 1.55326e-07, Final residual = 6.52384e-17, No Iterations 1
time step continuity errors : sum local = 1.2662e-10, global = 4.40445e-11, cumulative = 5.5714e-10
Maximum rho difference fraction = 1.86293e-09
Heat error = 3.27649e-15
ExecutionTime = 3.07 s  ClockTime = 3 s

Time = 26

Courant Number mean: 0.000412726 max: 0.00776487 max Ndt = 0.0141848
diagonal:  Solving for rho, Initial residual = 0, Final residual = 0, No Iterations 0
DICPBiCGStab:  Solving for theta, Initial residual = 0.000333998, Final residual = 1.96049e-13, No Iterations 1
DICPCG:  Solving for Exner, Initial residual = 1.32384e-05, Final residual = 8.15264e-09, No Iterations 8
DICPCG:  Solving for Exner, Initial residual = 1.21507e-08, Final residual = 9.62533e-11, No Iterations 6
diagonal:  Solving for rho, Initial residual = 0, Final residual = 0, No Iterations 0
DICPBiCGStab:  Solving for theta, Initial residual = 1.16411e-05, Final residual = 6.89895e-15, No Iterations 1
DICPCG:  Solving for Exner, Initial residual = 4.09784e-06, Final residual = 2.6143e-09, No Iterations 8
DICPCG:  Solving for Exner, Initial residual = 2.64456e-09, Final residual = 5.16187e-11, No Iterations 5
diagonal:  Solving for rho, Initial residual = 0, Final residual = 0, No Iterations 0
DICPBiCGStab:  Solving for theta, Initial residual = 1.59316e-07, Final residual = 8.79933e-17, No Iterations 1
time step continuity errors : sum local = 1.29817e-10, global = 4.01352e-11, cumulative = 5.97275e-10
Maximum rho difference fraction = 1.84019e-09
Heat error = 3.27649e-15
ExecutionTime = 3.32 s  ClockTime = 3 s

Time = 28

Courant Number mean: 0.000466877 max: 0.00834056 max Ndt = 0.0141893
diagonal:  Solving for rho, Initial residual = 0, Final residual = 0, No Iterations 0
DICPBiCGStab:  Solving for theta, Initial residual = 0.00035694, Final residual = 2.46264e-13, No Iterations 1
DICPCG:  Solving for Exner, Initial residual = 1.43197e-05, Final residual = 8.61406e-09, No Iterations 8
DICPCG:  Solving for Exner, Initial residual = 1.2887e-08, Final residual = 5.2674e-11, No Iterations 7
diagonal:  Solving for rho, Initial residual = 0, Final residual = 0, No Iterations 0
DICPBiCGStab:  Solving for theta, Initial residual = 1.18734e-05, Final residual = 8.11798e-15, No Iterations 1
DICPCG:  Solving for Exner, Initial residual = 4.23411e-06, Final residual = 2.55447e-09, No Iterations 8
DICPCG:  Solving for Exner, Initial residual = 2.58327e-09, Final residual = 5.35772e-11, No Iterations 5
diagonal:  Solving for rho, Initial residual = 0, Final residual = 0, No Iterations 0
DICPBiCGStab:  Solving for theta, Initial residual = 1.1244e-07, Final residual = 8.55966e-17, No Iterations 1
time step continuity errors : sum local = 1.35332e-10, global = 3.65629e-11, cumulative = 6.33838e-10
Maximum rho difference fraction = 2.26583e-09
Heat error = 6.68403e-15
ExecutionTime = 3.57 s  ClockTime = 3 s

Time = 30

Courant Number mean: 0.000521744 max: 0.00889548 max Ndt = 0.0141941
diagonal:  Solving for rho, Initial residual = 0, Final residual = 0, No Iterations 0
DICPBiCGStab:  Solving for theta, Initial residual = 0.000380437, Final residual = 3.03379e-13, No Iterations 1
DICPCG:  Solving for Exner, Initial residual = 1.49727e-05, Final residual = 8.61971e-09, No Iterations 8
DICPCG:  Solving for Exner, Initial residual = 1.3248e-08, Final residual = 5.39346e-11, No Iterations 7
diagonal:  Solving for rho, Initial residual = 0, Final residual = 0, No Iterations 0
DICPBiCGStab:  Solving for theta, Initial residual = 1.24003e-05, Final residual = 9.68292e-15, No Iterations 1
DICPCG:  Solving for Exner, Initial residual = 4.23422e-06, Final residual = 2.34844e-09, No Iterations 8
DICPCG:  Solving for Exner, Initial residual = 2.36836e-09, Final residual = 4.81981e-11, No Iterations 5
diagonal:  Solving for rho, Initial residual = 0, Final residual = 0, No Iterations 0
DICPBiCGStab:  Solving for theta, Initial residual = 1.29817e-07, Final residual = 1.07738e-16, No Iterations 1
time step continuity errors : sum local = 1.40432e-10, global = 3.4096e-11, cumulative = 6.67934e-10
Maximum rho difference fraction = 2.69666e-09
Heat error = -5.24238e-16
ExecutionTime = 3.82 s  ClockTime = 3 s

Time = 32

Courant Number mean: 0.000575802 max: 0.00945065 max Ndt = 0.0141991
diagonal:  Solving for rho, Initial residual = 0, Final residual = 0, No Iterations 0
DICPBiCGStab:  Solving for theta, Initial residual = 0.000405083, Final residual = 3.6601e-13, No Iterations 1
DICPCG:  Solving for Exner, Initial residual = 1.51334e-05, Final residual = 8.88948e-09, No Iterations 8
DICPCG:  Solving for Exner, Initial residual = 1.3605e-08, Final residual = 5.41232e-11, No Iterations 7
diagonal:  Solving for rho, Initial residual = 0, Final residual = 0, No Iterations 0
DICPBiCGStab:  Solving for theta, Initial residual = 1.30705e-05, Final residual = 1.15848e-14, No Iterations 1
DICPCG:  Solving for Exner, Initial residual = 4.34514e-06, Final residual = 2.14654e-09, No Iterations 8
DICPCG:  Solving for Exner, Initial residual = 2.17196e-09, Final residual = 9.88172e-11, No Iterations 4
diagonal:  Solving for rho, Initial residual = 0, Final residual = 0, No Iterations 0
DICPBiCGStab:  Solving for theta, Initial residual = 2.04179e-07, Final residual = 1.82154e-16, No Iterations 1
time step continuity errors : sum local = 1.44308e-10, global = 2.90405e-11, cumulative = 6.96975e-10
Maximum rho difference fraction = 1.89233e-09
Heat error = -6.55298e-16
ExecutionTime = 4.08 s  ClockTime = 4 s

Time = 34

Courant Number mean: 0.000627822 max: 0.0100351 max Ndt = 0.0142045
diagonal:  Solving for rho, Initial residual = 0, Final residual = 0, No Iterations 0
DICPBiCGStab:  Solving for theta, Initial residual = 0.000431204, Final residual = 4.3604e-13, No Iterations 1
DICPCG:  Solving for Exner, Initial residual = 1.54349e-05, Final residual = 8.58039e-09, No Iterations 8
DICPCG:  Solving for Exner, Initial residual = 1.36915e-08, Final residual = 5.68231e-11, No Iterations 7
diagonal:  Solving for rho, Initial residual = 0, Final residual = 0, No Iterations 0
DICPBiCGStab:  Solving for theta, Initial residual = 1.37416e-05, Final residual = 1.3808e-14, No Iterations 1
DICPCG:  Solving for Exner, Initial residual = 4.32343e-06, Final residual = 1.97655e-09, No Iterations 8
DICPCG:  Solving for Exner, Initial residual = 2.06521e-09, Final residual = 8.7206e-11, No Iterations 4
diagonal:  Solving for rho, Initial residual = 0, Final residual = 0, No Iterations 0
DICPBiCGStab:  Solving for theta, Initial residual = 2.27127e-07, Final residual = 2.02973e-16, No Iterations 1
time step continuity errors : sum local = 1.55269e-10, global = 2.73714e-11, cumulative = 7.24346e-10
Maximum rho difference fraction = 2.03734e-09
Heat error = 3.93179e-16
ExecutionTime = 4.34 s  ClockTime = 4 s

Time = 36

Courant Number mean: 0.000677481 max: 0.010669 max Ndt = 0.0142103
diagonal:  Solving for rho, Initial residual = 0, Final residual = 0, No Iterations 0
DICPBiCGStab:  Solving for theta, Initial residual = 0.000458764, Final residual = 5.20452e-13, No Iterations 1
DICPCG:  Solving for Exner, Initial residual = 1.51899e-05, Final residual = 7.26621e-09, No Iterations 8
DICPCG:  Solving for Exner, Initial residual = 1.33777e-08, Final residual = 5.73477e-11, No Iterations 7
diagonal:  Solving for rho, Initial residual = 0, Final residual = 0, No Iterations 0
DICPBiCGStab:  Solving for theta, Initial residual = 1.4266e-05, Final residual = 1.63691e-14, No Iterations 1
DICPCG:  Solving for Exner, Initial residual = 4.35845e-06, Final residual = 2.12055e-09, No Iterations 8
DICPCG:  Solving for Exner, Initial residual = 2.22132e-09, Final residual = 9.46176e-11, No Iterations 4
diagonal:  Solving for rho, Initial residual = 0, Final residual = 0, No Iterations 0
DICPBiCGStab:  Solving for theta, Initial residual = 1.59486e-07, Final residual = 2.06808e-16, No Iterations 1
time step continuity errors : sum local = 1.69681e-10, global = 2.87873e-11, cumulative = 7.53133e-10
Maximum rho difference fraction = 2.69526e-09
Heat error = 4.45602e-15
ExecutionTime = 4.59 s  ClockTime = 4 s

Time = 38

Courant Number mean: 0.000725057 max: 0.0113511 max Ndt = 0.0142164
diagonal:  Solving for rho, Initial residual = 0, Final residual = 0, No Iterations 0
DICPBiCGStab:  Solving for theta, Initial residual = 0.000487437, Final residual = 6.30429e-13, No Iterations 1
DICPCG:  Solving for Exner, Initial residual = 1.44754e-05, Final residual = 1.36499e-08, No Iterations 7
DICPCG:  Solving for Exner, Initial residual = 2.04204e-08, Final residual = 7.16149e-11, No Iterations 7
diagonal:  Solving for rho, Initial residual = 0, Final residual = 0, No Iterations 0
DICPBiCGStab:  Solving for theta, Initial residual = 1.45352e-05, Final residual = 1.92818e-14, No Iterations 1
DICPCG:  Solving for Exner, Initial residual = 4.5349e-06, Final residual = 2.35236e-09, No Iterations 8
DICPCG:  Solving for Exner, Initial residual = 2.42648e-09, Final residual = 4.58324e-11, No Iterations 5
diagonal:  Solving for rho, Initial residual = 0, Final residual = 0, No Iterations 0
DICPBiCGStab:  Solving for theta, Initial residual = 1.55526e-07, Final residual = 1.99821e-16, No Iterations 1
time step continuity errors : sum local = 1.65645e-10, global = 3.04911e-11, cumulative = 7.83624e-10
Maximum rho difference fraction = 2.501e-09
Heat error = 5.37344e-15
ExecutionTime = 4.85 s  ClockTime = 4 s

Time = 40

Courant Number mean: 0.000770802 max: 0.0120574 max Ndt = 0.0142229
diagonal:  Solving for rho, Initial residual = 0, Final residual = 0, No Iterations 0
DICPBiCGStab:  Solving for theta, Initial residual = 0.000516652, Final residual = 7.65917e-13, No Iterations 1
DICPCG:  Solving for Exner, Initial residual = 1.46005e-05, Final residual = 1.30985e-08, No Iterations 7
DICPCG:  Solving for Exner, Initial residual = 2.00435e-08, Final residual = 6.83872e-11, No Iterations 7
diagonal:  Solving for rho, Initial residual = 0, Final residual = 0, No Iterations 0
DICPBiCGStab:  Solving for theta, Initial residual = 1.45325e-05, Final residual = 2.22283e-14, No Iterations 1
DICPCG:  Solving for Exner, Initial residual = 4.61341e-06, Final residual = 2.4039e-09, No Iterations 8
DICPCG:  Solving for Exner, Initial residual = 2.53231e-09, Final residual = 4.86498e-11, No Iterations 5
diagonal:  Solving for rho, Initial residual = 0, Final residual = 0, No Iterations 0
DICPBiCGStab:  Solving for theta, Initial residual = 2.13548e-07, Final residual = 3.28899e-16, No Iterations 1
time step continuity errors : sum local = 1.6543e-10, global = 3.25318e-11, cumulative = 8.16156e-10
Maximum rho difference fraction = 2.30083e-09
Heat error = -4.32496e-15
ExecutionTime = 5.1 s  ClockTime = 5 s

Time = 42

Courant Number mean: 0.000815199 max: 0.0127532 max Ndt = 0.0142298
diagonal:  Solving for rho, Initial residual = 0, Final residual = 0, No Iterations 0
DICPBiCGStab:  Solving for theta, Initial residual = 0.000545802, Final residual = 9.15849e-13, No Iterations 1
DICPCG:  Solving for Exner, Initial residual = 1.49276e-05, Final residual = 6.28785e-09, No Iterations 8
DICPCG:  Solving for Exner, Initial residual = 1.35206e-08, Final residual = 4.53012e-11, No Iterations 7
diagonal:  Solving for rho, Initial residual = 0, Final residual = 0, No Iterations 0
DICPBiCGStab:  Solving for theta, Initial residual = 1.43305e-05, Final residual = 2.47398e-14, No Iterations 1
DICPCG:  Solving for Exner, Initial residual = 4.47996e-06, Final residual = 2.15911e-09, No Iterations 8
DICPCG:  Solving for Exner, Initial residual = 2.33112e-09, Final residual = 9.79628e-11, No Iterations 4
diagonal:  Solving for rho, Initial residual = 0, Final residual = 0, No Iterations 0
DICPBiCGStab:  Solving for theta, Initial residual = 2.14847e-07, Final residual = 3.63681e-16, No Iterations 1
time step continuity errors : sum local = 1.65486e-10, global = 3.65993e-11, cumulative = 8.52756e-10
Maximum rho difference fraction = 2.87945e-09
Heat error = 3.53861e-15
ExecutionTime = 5.36 s  ClockTime = 5 s

Time = 44

Courant Number mean: 0.000859063 max: 0.0134135 max Ndt = 0.0142369
diagonal:  Solving for rho, Initial residual = 0, Final residual = 0, No Iterations 0
DICPBiCGStab:  Solving for theta, Initial residual = 0.000574456, Final residual = 1.06668e-12, No Iterations 1
DICPCG:  Solving for Exner, Initial residual = 1.48215e-05, Final residual = 6.88431e-09, No Iterations 8
DICPCG:  Solving for Exner, Initial residual = 1.40086e-08, Final residual = 4.8036e-11, No Iterations 7
diagonal:  Solving for rho, Initial residual = 0, Final residual = 0, No Iterations 0
DICPBiCGStab:  Solving for theta, Initial residual = 1.4046e-05, Final residual = 2.65436e-14, No Iterations 1
DICPCG:  Solving for Exner, Initial residual = 4.2846e-06, Final residual = 1.94841e-09, No Iterations 8
DICPCG:  Solving for Exner, Initial residual = 2.11539e-09, Final residual = 8.48367e-11, No Iterations 4
diagonal:  Solving for rho, Initial residual = 0, Final residual = 0, No Iterations 0
DICPBiCGStab:  Solving for theta, Initial residual = 1.4167e-07, Final residual = 3.50025e-16, No Iterations 1
time step continuity errors : sum local = 1.73921e-10, global = 3.76131e-11, cumulative = 8.90369e-10
Maximum rho difference fraction = 2.8452e-09
Heat error = 2.62119e-15
ExecutionTime = 5.61 s  ClockTime = 5 s

Time = 46

Courant Number mean: 0.000902894 max: 0.0140371 max Ndt = 0.0142442
diagonal:  Solving for rho, Initial residual = 0, Final residual = 0, No Iterations 0
DICPBiCGStab:  Solving for theta, Initial residual = 0.000602444, Final residual = 1.21322e-12, No Iterations 1
DICPCG:  Solving for Exner, Initial residual = 1.43784e-05, Final residual = 6.61588e-09, No Iterations 8
DICPCG:  Solving for Exner, Initial residual = 1.37525e-08, Final residual = 4.99757e-11, No Iterations 7
diagonal:  Solving for rho, Initial residual = 0, Final residual = 0, No Iterations 0
DICPBiCGStab:  Solving for theta, Initial residual = 1.37878e-05, Final residual = 2.80106e-14, No Iterations 1
DICPCG:  Solving for Exner, Initial residual = 4.40062e-06, Final residual = 2.04581e-09, No Iterations 8
DICPCG:  Solving for Exner, Initial residual = 2.22084e-09, Final residual = 9.50659e-11, No Iterations 4
diagonal:  Solving for rho, Initial residual = 0, Final residual = 0, No Iterations 0
DICPBiCGStab:  Solving for theta, Initial residual = 1.08826e-07, Final residual = 2.24754e-16, No Iterations 1
time step continuity errors : sum local = 1.85531e-10, global = 3.56791e-11, cumulative = 9.26048e-10
Maximum rho difference fraction = 2.17998e-09
Heat error = -2.35907e-15
ExecutionTime = 5.86 s  ClockTime = 5 s

Time = 48

Courant Number mean: 0.000946538 max: 0.0146449 max Ndt = 0.0142517
diagonal:  Solving for rho, Initial residual = 0, Final residual = 0, No Iterations 0
DICPBiCGStab:  Solving for theta, Initial residual = 0.000629841, Final residual = 1.36287e-12, No Iterations 1
DICPCG:  Solving for Exner, Initial residual = 1.41878e-05, Final residual = 7.04069e-09, No Iterations 8
DICPCG:  Solving for Exner, Initial residual = 1.43339e-08, Final residual = 4.8592e-11, No Iterations 7
diagonal:  Solving for rho, Initial residual = 0, Final residual = 0, No Iterations 0
DICPBiCGStab:  Solving for theta, Initial residual = 1.36332e-05, Final residual = 2.97573e-14, No Iterations 1
DICPCG:  Solving for Exner, Initial residual = 4.44249e-06, Final residual = 2.10241e-09, No Iterations 8
DICPCG:  Solving for Exner, Initial residual = 2.26309e-09, Final residual = 9.75429e-11, No Iterations 4
diagonal:  Solving for rho, Initial residual = 0, Final residual = 0, No Iterations 0
DICPBiCGStab:  Solving for theta, Initial residual = 1.41113e-07, Final residual = 3.15839e-16, No Iterations 1
time step continuity errors : sum local = 2.00379e-10, global = 3.09037e-11, cumulative = 9.56951e-10
Maximum rho difference fraction = 2.12257e-09
Heat error = -5.11132e-15
ExecutionTime = 6.11 s  ClockTime = 6 s

Time = 50

Courant Number mean: 0.000991518 max: 0.015262 max Ndt = 0.0142593
diagonal:  Solving for rho, Initial residual = 0, Final residual = 0, No Iterations 0
DICPBiCGStab:  Solving for theta, Initial residual = 0.000656892, Final residual = 1.52775e-12, No Iterations 1
DICPCG:  Solving for Exner, Initial residual = 1.42664e-05, Final residual = 7.51749e-09, No Iterations 8
DICPCG:  Solving for Exner, Initial residual = 1.53247e-08, Final residual = 5.54745e-11, No Iterations 7
diagonal:  Solving for rho, Initial residual = 0, Final residual = 0, No Iterations 0
DICPBiCGStab:  Solving for theta, Initial residual = 1.36105e-05, Final residual = 3.21771e-14, No Iterations 1
DICPCG:  Solving for Exner, Initial residual = 4.36542e-06, Final residual = 1.98887e-09, No Iterations 8
DICPCG:  Solving for Exner, Initial residual = 2.10902e-09, Final residual = 8.79582e-11, No Iterations 4
diagonal:  Solving for rho, Initial residual = 0, Final residual = 0, No Iterations 0
DICPBiCGStab:  Solving for theta, Initial residual = 1.16133e-07, Final residual = 3.11922e-16, No Iterations 1
time step continuity errors : sum local = 2.12233e-10, global = 2.4789e-11, cumulative = 9.8174e-10
Maximum rho difference fraction = 2.11272e-09
Heat error = -1.3106e-16
ExecutionTime = 6.36 s  ClockTime = 6 s

Time = 52

Courant Number mean: 0.00103824 max: 0.0159004 max Ndt = 0.0142672
diagonal:  Solving for rho, Initial residual = 0, Final residual = 0, No Iterations 0
DICPBiCGStab:  Solving for theta, Initial residual = 0.000683939, Final residual = 1.72189e-12, No Iterations 1
DICPCG:  Solving for Exner, Initial residual = 1.41651e-05, Final residual = 7.8016e-09, No Iterations 8
DICPCG:  Solving for Exner, Initial residual = 1.60469e-08, Final residual = 5.74972e-11, No Iterations 7
diagonal:  Solving for rho, Initial residual = 0, Final residual = 0, No Iterations 0
DICPBiCGStab:  Solving for theta, Initial residual = 1.36829e-05, Final residual = 3.52856e-14, No Iterations 1
DICPCG:  Solving for Exner, Initial residual = 4.22625e-06, Final residual = 1.87035e-09, No Iterations 8
DICPCG:  Solving for Exner, Initial residual = 1.97199e-09, Final residual = 7.51986e-11, No Iterations 4
diagonal:  Solving for rho, Initial residual = 0, Final residual = 0, No Iterations 0
DICPBiCGStab:  Solving for theta, Initial residual = 6.52192e-08, Final residual = 2.12346e-16, No Iterations 1
time step continuity errors : sum local = 2.15231e-10, global = 1.93575e-11, cumulative = 1.0011e-09
Maximum rho difference fraction = 2.09434e-09
Heat error = 3.27649e-15
ExecutionTime = 6.62 s  ClockTime = 6 s

Time = 54

Courant Number mean: 0.00108463 max: 0.0165531 max Ndt = 0.0142752
diagonal:  Solving for rho, Initial residual = 0, Final residual = 0, No Iterations 0
DICPBiCGStab:  Solving for theta, Initial residual = 0.000711223, Final residual = 1.95034e-12, No Iterations 1
DICPCG:  Solving for Exner, Initial residual = 1.38415e-05, Final residual = 7.9755e-09, No Iterations 8
DICPCG:  Solving for Exner, Initial residual = 1.66144e-08, Final residual = 5.39032e-11, No Iterations 7
diagonal:  Solving for rho, Initial residual = 0, Final residual = 0, No Iterations 0
DICPBiCGStab:  Solving for theta, Initial residual = 1.37617e-05, Final residual = 3.87578e-14, No Iterations 1
DICPCG:  Solving for Exner, Initial residual = 4.26816e-06, Final residual = 1.86704e-09, No Iterations 8
DICPCG:  Solving for Exner, Initial residual = 1.95437e-09, Final residual = 6.50664e-11, No Iterations 4
diagonal:  Solving for rho, Initial residual = 0, Final residual = 0, No Iterations 0
DICPBiCGStab:  Solving for theta, Initial residual = 7.6364e-08, Final residual = 2.49603e-16, No Iterations 1
time step continuity errors : sum local = 2.12748e-10, global = 1.49381e-11, cumulative = 1.01604e-09
Maximum rho difference fraction = 2.32982e-09
Heat error = 1.3106e-15
ExecutionTime = 6.87 s  ClockTime = 6 s

Time = 56

Courant Number mean: 0.00112984 max: 0.0172042 max Ndt = 0.0142835
diagonal:  Solving for rho, Initial residual = 0, Final residual = 0, No Iterations 0
DICPBiCGStab:  Solving for theta, Initial residual = 0.000738709, Final residual = 2.20227e-12, No Iterations 1
DICPCG:  Solving for Exner, Initial residual = 1.37827e-05, Final residual = 7.96099e-09, No Iterations 8
DICPCG:  Solving for Exner, Initial residual = 1.7059e-08, Final residual = 5.72527e-11, No Iterations 7
diagonal:  Solving for rho, Initial residual = 0, Final residual = 0, No Iterations 0
DICPBiCGStab:  Solving for theta, Initial residual = 1.37597e-05, Final residual = 4.21338e-14, No Iterations 1
DICPCG:  Solving for Exner, Initial residual = 4.23458e-06, Final residual = 1.82844e-09, No Iterations 8
DICPCG:  Solving for Exner, Initial residual = 1.9182e-09, Final residual = 6.78087e-11, No Iterations 4
diagonal:  Solving for rho, Initial residual = 0, Final residual = 0, No Iterations 0
DICPBiCGStab:  Solving for theta, Initial residual = 8.66975e-08, Final residual = 3.28911e-16, No Iterations 1
time step continuity errors : sum local = 2.09929e-10, global = 1.15219e-11, cumulative = 1.02756e-09
Maximum rho difference fraction = 2.98376e-09
Heat error = -1.57271e-15
ExecutionTime = 7.12 s  ClockTime = 7 s

Time = 58

Courant Number mean: 0.00117306 max: 0.0178424 max Ndt = 0.014292
diagonal:  Solving for rho, Initial residual = 0, Final residual = 0, No Iterations 0
DICPBiCGStab:  Solving for theta, Initial residual = 0.000766199, Final residual = 2.46317e-12, No Iterations 1
DICPCG:  Solving for Exner, Initial residual = 1.38481e-05, Final residual = 8.04359e-09, No Iterations 8
DICPCG:  Solving for Exner, Initial residual = 1.7548e-08, Final residual = 6.14524e-11, No Iterations 7
diagonal:  Solving for rho, Initial residual = 0, Final residual = 0, No Iterations 0
DICPBiCGStab:  Solving for theta, Initial residual = 1.36494e-05, Final residual = 4.50585e-14, No Iterations 1
DICPCG:  Solving for Exner, Initial residual = 4.07154e-06, Final residual = 1.7622e-09, No Iterations 8
DICPCG:  Solving for Exner, Initial residual = 1.84408e-09, Final residual = 7.50189e-11, No Iterations 4
diagonal:  Solving for rho, Initial residual = 0, Final residual = 0, No Iterations 0
DICPBiCGStab:  Solving for theta, Initial residual = 6.75319e-08, Final residual = 3.24765e-16, No Iterations 1
time step continuity errors : sum local = 2.08434e-10, global = 8.47915e-12, cumulative = 1.03604e-09
Maximum rho difference fraction = 3.52883e-09
Heat error = -1.3106e-16
ExecutionTime = 7.36 s  ClockTime = 7 s

Time = 60

Courant Number mean: 0.00121324 max: 0.0184681 max Ndt = 0.0143006
diagonal:  Solving for rho, Initial residual = 0, Final residual = 0, No Iterations 0
DICPBiCGStab:  Solving for theta, Initial residual = 0.000793429, Final residual = 2.72732e-12, No Iterations 1
DICPCG:  Solving for Exner, Initial residual = 1.3521e-05, Final residual = 8.45688e-09, No Iterations 8
DICPCG:  Solving for Exner, Initial residual = 1.82302e-08, Final residual = 6.17189e-11, No Iterations 7
diagonal:  Solving for rho, Initial residual = 0, Final residual = 0, No Iterations 0
DICPBiCGStab:  Solving for theta, Initial residual = 1.34794e-05, Final residual = 4.764e-14, No Iterations 1
DICPCG:  Solving for Exner, Initial residual = 3.8966e-06, Final residual = 1.71701e-09, No Iterations 8
DICPCG:  Solving for Exner, Initial residual = 1.76637e-09, Final residual = 8.03451e-11, No Iterations 4
diagonal:  Solving for rho, Initial residual = 0, Final residual = 0, No Iterations 0
DICPBiCGStab:  Solving for theta, Initial residual = 5.07046e-08, Final residual = 2.00097e-16, No Iterations 1
time step continuity errors : sum local = 2.08007e-10, global = 5.48982e-12, cumulative = 1.04153e-09
Maximum rho difference fraction = 3.71107e-09
Heat error = -2.88331e-15
ExecutionTime = 7.61 s  ClockTime = 7 s

Time = 62

Courant Number mean: 0.00124915 max: 0.0190887 max Ndt = 0.0143092
diagonal:  Solving for rho, Initial residual = 0, Final residual = 0, No Iterations 0
DICPBiCGStab:  Solving for theta, Initial residual = 0.000820255, Final residual = 3.00028e-12, No Iterations 1
DICPCG:  Solving for Exner, Initial residual = 1.29333e-05, Final residual = 8.30886e-09, No Iterations 8
DICPCG:  Solving for Exner, Initial residual = 1.8316e-08, Final residual = 6.26885e-11, No Iterations 7
diagonal:  Solving for rho, Initial residual = 0, Final residual = 0, No Iterations 0
DICPBiCGStab:  Solving for theta, Initial residual = 1.3334e-05, Final residual = 5.03667e-14, No Iterations 1
DICPCG:  Solving for Exner, Initial residual = 3.80118e-06, Final residual = 1.85133e-09, No Iterations 8
DICPCG:  Solving for Exner, Initial residual = 1.86447e-09, Final residual = 8.15992e-11, No Iterations 4
diagonal:  Solving for rho, Initial residual = 0, Final residual = 0, No Iterations 0
DICPBiCGStab:  Solving for theta, Initial residual = 5.17796e-08, Final residual = 2.21653e-16, No Iterations 1
time step continuity errors : sum local = 2.10517e-10, global = 2.98455e-12, cumulative = 1.04451e-09
Maximum rho difference fraction = 5.05604e-09
Heat error = 2.09695e-15
ExecutionTime = 7.87 s  ClockTime = 7 s

Time = 64

Courant Number mean: 0.00127975 max: 0.0197101 max Ndt = 0.014318
diagonal:  Solving for rho, Initial residual = 0, Final residual = 0, No Iterations 0
DICPBiCGStab:  Solving for theta, Initial residual = 0.000846734, Final residual = 3.29589e-12, No Iterations 1
DICPCG:  Solving for Exner, Initial residual = 1.22031e-05, Final residual = 7.49589e-09, No Iterations 8
DICPCG:  Solving for Exner, Initial residual = 1.7767e-08, Final residual = 6.30439e-11, No Iterations 7
diagonal:  Solving for rho, Initial residual = 0, Final residual = 0, No Iterations 0
DICPBiCGStab:  Solving for theta, Initial residual = 1.32747e-05, Final residual = 5.36468e-14, No Iterations 1
DICPCG:  Solving for Exner, Initial residual = 3.73765e-06, Final residual = 2.06308e-09, No Iterations 8
DICPCG:  Solving for Exner, Initial residual = 2.06408e-09, Final residual = 8.08629e-11, No Iterations 4
diagonal:  Solving for rho, Initial residual = 0, Final residual = 0, No Iterations 0
DICPBiCGStab:  Solving for theta, Initial residual = 5.69935e-08, Final residual = 3.01308e-16, No Iterations 1
time step continuity errors : sum local = 2.12674e-10, global = 1.18347e-12, cumulative = 1.04569e-09
Maximum rho difference fraction = 7.51831e-09
Heat error = 1.70377e-15
ExecutionTime = 8.12 s  ClockTime = 8 s

Time = 66

Courant Number mean: 0.00130464 max: 0.0203324 max Ndt = 0.0143268
diagonal:  Solving for rho, Initial residual = 0, Final residual = 0, No Iterations 0
DICPBiCGStab:  Solving for theta, Initial residual = 0.000873074, Final residual = 3.62397e-12, No Iterations 1
DICPCG:  Solving for Exner, Initial residual = 1.12996e-05, Final residual = 5.68349e-09, No Iterations 8
DICPCG:  Solving for Exner, Initial residual = 1.6375e-08, Final residual = 5.90539e-11, No Iterations 7
diagonal:  Solving for rho, Initial residual = 0, Final residual = 0, No Iterations 0
DICPBiCGStab:  Solving for theta, Initial residual = 1.33193e-05, Final residual = 5.76489e-14, No Iterations 1
DICPCG:  Solving for Exner, Initial residual = 3.71867e-06, Final residual = 2.28554e-09, No Iterations 8
DICPCG:  Solving for Exner, Initial residual = 2.30567e-09, Final residual = 9.31033e-11, No Iterations 4
diagonal:  Solving for rho, Initial residual = 0, Final residual = 0, No Iterations 0
DICPBiCGStab:  Solving for theta, Initial residual = 5.05563e-08, Final residual = 2.59916e-16, No Iterations 1
time step continuity errors : sum local = 2.11218e-10, global = -2.23695e-13, cumulative = 1.04547e-09
Maximum rho difference fraction = 1.01396e-08
Heat error = -4.45602e-15
ExecutionTime = 8.38 s  ClockTime = 8 s

Time = 68

Courant Number mean: 0.00132507 max: 0.0209523 max Ndt = 0.0143357
diagonal:  Solving for rho, Initial residual = 0, Final residual = 0, No Iterations 0
DICPBiCGStab:  Solving for theta, Initial residual = 0.000899472, Final residual = 3.98508e-12, No Iterations 1
DICPCG:  Solving for Exner, Initial residual = 1.08698e-05, Final residual = 5.07886e-09, No Iterations 8
DICPCG:  Solving for Exner, Initial residual = 1.64678e-08, Final residual = 5.7112e-11, No Iterations 7
diagonal:  Solving for rho, Initial residual = 0, Final residual = 0, No Iterations 0
DICPBiCGStab:  Solving for theta, Initial residual = 1.34475e-05, Final residual = 6.22622e-14, No Iterations 1
DICPCG:  Solving for Exner, Initial residual = 3.69229e-06, Final residual = 2.49239e-09, No Iterations 8
DICPCG:  Solving for Exner, Initial residual = 2.54478e-09, Final residual = 9.97498e-11, No Iterations 4
diagonal:  Solving for rho, Initial residual = 0, Final residual = 0, No Iterations 0
DICPBiCGStab:  Solving for theta, Initial residual = 4.57055e-08, Final residual = 2.52514e-16, No Iterations 1
time step continuity errors : sum local = 2.08909e-10, global = -1.01098e-12, cumulative = 1.04446e-09
Maximum rho difference fraction = 1.24063e-08
Heat error = 6.55298e-15
ExecutionTime = 8.63 s  ClockTime = 8 s

Time = 70

Courant Number mean: 0.00135657 max: 0.0215689 max Ndt = 0.0143447
diagonal:  Solving for rho, Initial residual = 0, Final residual = 0, No Iterations 0
DICPBiCGStab:  Solving for theta, Initial residual = 0.000926053, Final residual = 4.37482e-12, No Iterations 1
DICPCG:  Solving for Exner, Initial residual = 1.10516e-05, Final residual = 6.76924e-09, No Iterations 8
DICPCG:  Solving for Exner, Initial residual = 1.84979e-08, Final residual = 5.89815e-11, No Iterations 7
diagonal:  Solving for rho, Initial residual = 0, Final residual = 0, No Iterations 0
DICPBiCGStab:  Solving for theta, Initial residual = 1.36313e-05, Final residual = 6.73515e-14, No Iterations 1
DICPCG:  Solving for Exner, Initial residual = 3.48812e-06, Final residual = 2.40285e-09, No Iterations 8
DICPCG:  Solving for Exner, Initial residual = 2.45042e-09, Final residual = 9.53321e-11, No Iterations 4
diagonal:  Solving for rho, Initial residual = 0, Final residual = 0, No Iterations 0
DICPBiCGStab:  Solving for theta, Initial residual = 6.23566e-08, Final residual = 2.8032e-16, No Iterations 1
time step continuity errors : sum local = 2.09919e-10, global = -9.34724e-13, cumulative = 1.04353e-09
Maximum rho difference fraction = 1.37822e-08
Heat error = -1.44165e-15
ExecutionTime = 8.88 s  ClockTime = 8 s

Time = 72

Courant Number mean: 0.00139127 max: 0.0221857 max Ndt = 0.0143536
diagonal:  Solving for rho, Initial residual = 0, Final residual = 0, No Iterations 0
DICPBiCGStab:  Solving for theta, Initial residual = 0.000952872, Final residual = 4.78724e-12, No Iterations 1
DICPCG:  Solving for Exner, Initial residual = 1.08604e-05, Final residual = 7.70533e-09, No Iterations 8
DICPCG:  Solving for Exner, Initial residual = 2.00449e-08, Final residual = 6.43678e-11, No Iterations 7
diagonal:  Solving for rho, Initial residual = 0, Final residual = 0, No Iterations 0
DICPBiCGStab:  Solving for theta, Initial residual = 1.38078e-05, Final residual = 7.26849e-14, No Iterations 1
DICPCG:  Solving for Exner, Initial residual = 3.21344e-06, Final residual = 2.02947e-09, No Iterations 8
DICPCG:  Solving for Exner, Initial residual = 2.06384e-09, Final residual = 8.36874e-11, No Iterations 4
diagonal:  Solving for rho, Initial residual = 0, Final residual = 0, No Iterations 0
DICPBiCGStab:  Solving for theta, Initial residual = 8.13478e-08, Final residual = 3.63731e-16, No Iterations 1
time step continuity errors : sum local = 2.10388e-10, global = -4.68269e-13, cumulative = 1.04306e-09
Maximum rho difference fraction = 1.29948e-08
Heat error = -4.8492e-15
ExecutionTime = 9.13 s  ClockTime = 9 s

Time = 74

Courant Number mean: 0.00142747 max: 0.0228092 max Ndt = 0.0143626
diagonal:  Solving for rho, Initial residual = 0, Final residual = 0, No Iterations 0
DICPBiCGStab:  Solving for theta, Initial residual = 0.000979958, Final residual = 5.22138e-12, No Iterations 1
DICPCG:  Solving for Exner, Initial residual = 1.01171e-05, Final residual = 7.67359e-09, No Iterations 8
DICPCG:  Solving for Exner, Initial residual = 2.04473e-08, Final residual = 6.74486e-11, No Iterations 7
diagonal:  Solving for rho, Initial residual = 0, Final residual = 0, No Iterations 0
DICPBiCGStab:  Solving for theta, Initial residual = 1.39636e-05, Final residual = 7.82126e-14, No Iterations 1
DICPCG:  Solving for Exner, Initial residual = 3.11038e-06, Final residual = 1.83162e-09, No Iterations 8
DICPCG:  Solving for Exner, Initial residual = 1.86198e-09, Final residual = 7.77365e-11, No Iterations 4
diagonal:  Solving for rho, Initial residual = 0, Final residual = 0, No Iterations 0
DICPBiCGStab:  Solving for theta, Initial residual = 8.37769e-08, Final residual = 4.09933e-16, No Iterations 1
time step continuity errors : sum local = 2.07e-10, global = -6.85168e-13, cumulative = 1.04237e-09
Maximum rho difference fraction = 9.69148e-09
Heat error = -3.14543e-15
ExecutionTime = 9.39 s  ClockTime = 9 s

Time = 76

Courant Number mean: 0.00146233 max: 0.0234439 max Ndt = 0.0143715
diagonal:  Solving for rho, Initial residual = 0, Final residual = 0, No Iterations 0
DICPBiCGStab:  Solving for theta, Initial residual = 0.00100744, Final residual = 5.67946e-12, No Iterations 1
DICPCG:  Solving for Exner, Initial residual = 9.45993e-06, Final residual = 6.7452e-09, No Iterations 8
DICPCG:  Solving for Exner, Initial residual = 1.97373e-08, Final residual = 6.85028e-11, No Iterations 7
diagonal:  Solving for rho, Initial residual = 0, Final residual = 0, No Iterations 0
DICPBiCGStab:  Solving for theta, Initial residual = 1.40769e-05, Final residual = 8.38769e-14, No Iterations 1
DICPCG:  Solving for Exner, Initial residual = 3.23198e-06, Final residual = 1.86796e-09, No Iterations 8
DICPCG:  Solving for Exner, Initial residual = 1.90422e-09, Final residual = 7.9362e-11, No Iterations 4
diagonal:  Solving for rho, Initial residual = 0, Final residual = 0, No Iterations 0
DICPBiCGStab:  Solving for theta, Initial residual = 5.87826e-08, Final residual = 3.45474e-16, No Iterations 1
time step continuity errors : sum local = 2.04036e-10, global = -2.6833e-12, cumulative = 1.03969e-09
Maximum rho difference fraction = 5.44335e-09
Heat error = 3.40755e-15
ExecutionTime = 9.64 s  ClockTime = 9 s

Time = 78

Courant Number mean: 0.00150107 max: 0.0240895 max Ndt = 0.0143803
diagonal:  Solving for rho, Initial residual = 0, Final residual = 0, No Iterations 0
DICPBiCGStab:  Solving for theta, Initial residual = 0.00103516, Final residual = 6.1599e-12, No Iterations 1
DICPCG:  Solving for Exner, Initial residual = 9.38354e-06, Final residual = 6.26347e-09, No Iterations 8
DICPCG:  Solving for Exner, Initial residual = 1.93563e-08, Final residual = 6.89966e-11, No Iterations 7
diagonal:  Solving for rho, Initial residual = 0, Final residual = 0, No Iterations 0
DICPBiCGStab:  Solving for theta, Initial residual = 1.41433e-05, Final residual = 8.9687e-14, No Iterations 1
DICPCG:  Solving for Exner, Initial residual = 3.21596e-06, Final residual = 1.96413e-09, No Iterations 8
DICPCG:  Solving for Exner, Initial residual = 2.02984e-09, Final residual = 7.69834e-11, No Iterations 4
diagonal:  Solving for rho, Initial residual = 0, Final residual = 0, No Iterations 0
DICPBiCGStab:  Solving for theta, Initial residual = 5.10759e-08, Final residual = 4.47572e-16, No Iterations 1
time step continuity errors : sum local = 2.04591e-10, global = -5.61289e-12, cumulative = 1.03408e-09
Maximum rho difference fraction = 1.90397e-09
Heat error = 1.17954e-15
ExecutionTime = 9.9 s  ClockTime = 9 s

Time = 80

Courant Number mean: 0.00154973 max: 0.0247413 max Ndt = 0.0143891
diagonal:  Solving for rho, Initial residual = 0, Final residual = 0, No Iterations 0
DICPBiCGStab:  Solving for theta, Initial residual = 0.001063, Final residual = 6.66009e-12, No Iterations 1
DICPCG:  Solving for Exner, Initial residual = 9.87632e-06, Final residual = 6.98728e-09, No Iterations 8
DICPCG:  Solving for Exner, Initial residual = 2.03035e-08, Final residual = 7.00115e-11, No Iterations 7
diagonal:  Solving for rho, Initial residual = 0, Final residual = 0, No Iterations 0
DICPBiCGStab:  Solving for theta, Initial residual = 1.41659e-05, Final residual = 9.54969e-14, No Iterations 1
DICPCG:  Solving for Exner, Initial residual = 2.88516e-06, Final residual = 1.84309e-09, No Iterations 8
DICPCG:  Solving for Exner, Initial residual = 1.91817e-09, Final residual = 6.84568e-11, No Iterations 4
diagonal:  Solving for rho, Initial residual = 0, Final residual = 0, No Iterations 0
DICPBiCGStab:  Solving for theta, Initial residual = 8.50782e-08, Final residual = 7.49466e-16, No Iterations 1
time step continuity errors : sum local = 2.06664e-10, global = -8.75207e-12, cumulative = 1.02532e-09
Maximum rho difference fraction = 3.71736e-09
Heat error = 1.3106e-16
ExecutionTime = 10.15 s  ClockTime = 10 s

Time = 82

Courant Number mean: 0.00160099 max: 0.0253923 max Ndt = 0.0143977
diagonal:  Solving for rho, Initial residual = 0, Final residual = 0, No Iterations 0
DICPBiCGStab:  Solving for theta, Initial residual = 0.00109083, Final residual = 7.17835e-12, No Iterations 1
DICPCG:  Solving for Exner, Initial residual = 9.83539e-06, Final residual = 7.11966e-09, No Iterations 8
DICPCG:  Solving for Exner, Initial residual = 2.06957e-08, Final residual = 7.10318e-11, No Iterations 7
diagonal:  Solving for rho, Initial residual = 0, Final residual = 0, No Iterations 0
DICPBiCGStab:  Solving for theta, Initial residual = 1.41401e-05, Final residual = 1.01055e-13, No Iterations 1
DICPCG:  Solving for Exner, Initial residual = 2.78479e-06, Final residual = 1.57772e-09, No Iterations 8
DICPCG:  Solving for Exner, Initial residual = 1.63585e-09, Final residual = 5.49997e-11, No Iterations 4
diagonal:  Solving for rho, Initial residual = 0, Final residual = 0, No Iterations 0
DICPBiCGStab:  Solving for theta, Initial residual = 1.07188e-07, Final residual = 9.10591e-16, No Iterations 1
time step continuity errors : sum local = 2.08196e-10, global = -1.21278e-11, cumulative = 1.0132e-09
Maximum rho difference fraction = 7.19565e-09
Heat error = -7.86357e-15
ExecutionTime = 10.4 s  ClockTime = 10 s

Time = 84

Courant Number mean: 0.00164894 max: 0.0260362 max Ndt = 0.0144061
diagonal:  Solving for rho, Initial residual = 0, Final residual = 0, No Iterations 0
DICPBiCGStab:  Solving for theta, Initial residual = 0.0011185, Final residual = 7.71914e-12, No Iterations 1
DICPCG:  Solving for Exner, Initial residual = 9.1041e-06, Final residual = 6.54652e-09, No Iterations 8
DICPCG:  Solving for Exner, Initial residual = 2.01934e-08, Final residual = 7.09611e-11, No Iterations 7
diagonal:  Solving for rho, Initial residual = 0, Final residual = 0, No Iterations 0
DICPBiCGStab:  Solving for theta, Initial residual = 1.40893e-05, Final residual = 1.06321e-13, No Iterations 1
DICPCG:  Solving for Exner, Initial residual = 2.85259e-06, Final residual = 1.57971e-09, No Iterations 8
DICPCG:  Solving for Exner, Initial residual = 1.63033e-09, Final residual = 5.91135e-11, No Iterations 4
diagonal:  Solving for rho, Initial residual = 0, Final residual = 0, No Iterations 0
DICPBiCGStab:  Solving for theta, Initial residual = 9.85594e-08, Final residual = 8.21942e-16, No Iterations 1
time step continuity errors : sum local = 2.08464e-10, global = -1.61697e-11, cumulative = 9.97026e-10
Maximum rho difference fraction = 7.68786e-09
Heat error = -4.45602e-15
ExecutionTime = 10.66 s  ClockTime = 10 s

Time = 86

Courant Number mean: 0.00169616 max: 0.0266701 max Ndt = 0.0144142
diagonal:  Solving for rho, Initial residual = 0, Final residual = 0, No Iterations 0
DICPBiCGStab:  Solving for theta, Initial residual = 0.00114593, Final residual = 8.29083e-12, No Iterations 1
DICPCG:  Solving for Exner, Initial residual = 9.58665e-06, Final residual = 6.55321e-09, No Iterations 8
DICPCG:  Solving for Exner, Initial residual = 2.05138e-08, Final residual = 7.19911e-11, No Iterations 7
diagonal:  Solving for rho, Initial residual = 0, Final residual = 0, No Iterations 0
DICPBiCGStab:  Solving for theta, Initial residual = 1.40523e-05, Final residual = 1.11555e-13, No Iterations 1
DICPCG:  Solving for Exner, Initial residual = 3.03089e-06, Final residual = 1.73855e-09, No Iterations 8
DICPCG:  Solving for Exner, Initial residual = 1.79336e-09, Final residual = 7.09765e-11, No Iterations 4
diagonal:  Solving for rho, Initial residual = 0, Final residual = 0, No Iterations 0
DICPBiCGStab:  Solving for theta, Initial residual = 6.82323e-08, Final residual = 5.98972e-16, No Iterations 1
time step continuity errors : sum local = 2.09795e-10, global = -2.06326e-11, cumulative = 9.76394e-10
Maximum rho difference fraction = 5.27788e-09
Heat error = -6.55298e-16
ExecutionTime = 10.91 s  ClockTime = 10 s

Time = 88

Courant Number mean: 0.00174472 max: 0.0272949 max Ndt = 0.0144221
diagonal:  Solving for rho, Initial residual = 0, Final residual = 0, No Iterations 0
DICPBiCGStab:  Solving for theta, Initial residual = 0.00117311, Final residual = 8.90007e-12, No Iterations 1
DICPCG:  Solving for Exner, Initial residual = 1.04552e-05, Final residual = 7.27653e-09, No Iterations 8
DICPCG:  Solving for Exner, Initial residual = 2.17842e-08, Final residual = 7.64878e-11, No Iterations 7
diagonal:  Solving for rho, Initial residual = 0, Final residual = 0, No Iterations 0
DICPBiCGStab:  Solving for theta, Initial residual = 1.40513e-05, Final residual = 1.17124e-13, No Iterations 1
DICPCG:  Solving for Exner, Initial residual = 2.81948e-06, Final residual = 1.55304e-09, No Iterations 8
DICPCG:  Solving for Exner, Initial residual = 1.60729e-09, Final residual = 7.02982e-11, No Iterations 4
diagonal:  Solving for rho, Initial residual = 0, Final residual = 0, No Iterations 0
DICPBiCGStab:  Solving for theta, Initial residual = 6.76232e-08, Final residual = 5.37179e-16, No Iterations 1
time step continuity errors : sum local = 2.12452e-10, global = -2.42329e-11, cumulative = 9.52161e-10
Maximum rho difference fraction = 2.24118e-09
Heat error = -3.93179e-15
ExecutionTime = 11.17 s  ClockTime = 11 s

Time = 90

Courant Number mean: 0.0017943 max: 0.0279149 max Ndt = 0.0144344
diagonal:  Solving for rho, Initial residual = 0, Final residual = 0, No Iterations 0
DICPBiCGStab:  Solving for theta, Initial residual = 0.00120009, Final residual = 9.54694e-12, No Iterations 1
DICPCG:  Solving for Exner, Initial residual = 1.06547e-05, Final residual = 7.53417e-09, No Iterations 8
DICPCG:  Solving for Exner, Initial residual = 2.26145e-08, Final residual = 7.9703e-11, No Iterations 7
diagonal:  Solving for rho, Initial residual = 0, Final residual = 0, No Iterations 0
DICPBiCGStab:  Solving for theta, Initial residual = 1.40778e-05, Final residual = 1.2343e-13, No Iterations 1
DICPCG:  Solving for Exner, Initial residual = 2.30858e-06, Final residual = 1.42805e-09, No Iterations 8
DICPCG:  Solving for Exner, Initial residual = 1.46684e-09, Final residual = 6.40248e-11, No Iterations 4
diagonal:  Solving for rho, Initial residual = 0, Final residual = 0, No Iterations 0
DICPBiCGStab:  Solving for theta, Initial residual = 7.85391e-08, Final residual = 5.92267e-16, No Iterations 1
time step continuity errors : sum local = 2.16035e-10, global = -2.65912e-11, cumulative = 9.25569e-10
Maximum rho difference fraction = 2.54438e-09
Heat error = -1.70377e-15
ExecutionTime = 11.42 s  ClockTime = 11 s

Time = 92

Courant Number mean: 0.00183648 max: 0.0285358 max Ndt = 0.0144604
diagonal:  Solving for rho, Initial residual = 0, Final residual = 0, No Iterations 0
DICPBiCGStab:  Solving for theta, Initial residual = 0.00122691, Final residual = 1.02251e-11, No Iterations 1
DICPCG:  Solving for Exner, Initial residual = 9.54372e-06, Final residual = 6.8356e-09, No Iterations 8
DICPCG:  Solving for Exner, Initial residual = 2.25433e-08, Final residual = 7.95396e-11, No Iterations 7
diagonal:  Solving for rho, Initial residual = 0, Final residual = 0, No Iterations 0
DICPBiCGStab:  Solving for theta, Initial residual = 1.41093e-05, Final residual = 1.30363e-13, No Iterations 1
DICPCG:  Solving for Exner, Initial residual = 2.29594e-06, Final residual = 1.49909e-09, No Iterations 8
DICPCG:  Solving for Exner, Initial residual = 1.52127e-09, Final residual = 6.31103e-11, No Iterations 4
diagonal:  Solving for rho, Initial residual = 0, Final residual = 0, No Iterations 0
DICPBiCGStab:  Solving for theta, Initial residual = 7.03978e-08, Final residual = 5.26094e-16, No Iterations 1
time step continuity errors : sum local = 2.16911e-10, global = -2.74088e-11, cumulative = 8.98161e-10
Maximum rho difference fraction = 2.31503e-09
Heat error = 1.3106e-15
ExecutionTime = 11.68 s  ClockTime = 11 s

Time = 94

Courant Number mean: 0.00186607 max: 0.0291619 max Ndt = 0.0144866
diagonal:  Solving for rho, Initial residual = 0, Final residual = 0, No Iterations 0
DICPBiCGStab:  Solving for theta, Initial residual = 0.00125366, Final residual = 1.09271e-11, No Iterations 1
DICPCG:  Solving for Exner, Initial residual = 8.01927e-06, Final residual = 5.90456e-09, No Iterations 8
DICPCG:  Solving for Exner, Initial residual = 2.21826e-08, Final residual = 7.92785e-11, No Iterations 7
diagonal:  Solving for rho, Initial residual = 0, Final residual = 0, No Iterations 0
DICPBiCGStab:  Solving for theta, Initial residual = 1.4142e-05, Final residual = 1.37819e-13, No Iterations 1
DICPCG:  Solving for Exner, Initial residual = 2.7563e-06, Final residual = 1.70117e-09, No Iterations 8
DICPCG:  Solving for Exner, Initial residual = 1.73727e-09, Final residual = 6.97862e-11, No Iterations 4
diagonal:  Solving for rho, Initial residual = 0, Final residual = 0, No Iterations 0
DICPBiCGStab:  Solving for theta, Initial residual = 5.22287e-08, Final residual = 4.52225e-16, No Iterations 1
time step continuity errors : sum local = 2.15872e-10, global = -2.52438e-11, cumulative = 8.72917e-10
Maximum rho difference fraction = 1.91655e-09
Heat error = 3.14543e-15
ExecutionTime = 11.93 s  ClockTime = 11 s

Time = 96

Courant Number mean: 0.0018899 max: 0.0297937 max Ndt = 0.0145131
diagonal:  Solving for rho, Initial residual = 0, Final residual = 0, No Iterations 0
DICPBiCGStab:  Solving for theta, Initial residual = 0.00128038, Final residual = 1.16501e-11, No Iterations 1
DICPCG:  Solving for Exner, Initial residual = 8.18195e-06, Final residual = 4.97247e-09, No Iterations 8
DICPCG:  Solving for Exner, Initial residual = 2.16418e-08, Final residual = 7.82199e-11, No Iterations 7
diagonal:  Solving for rho, Initial residual = 0, Final residual = 0, No Iterations 0
DICPBiCGStab:  Solving for theta, Initial residual = 1.41761e-05, Final residual = 1.45814e-13, No Iterations 1
DICPCG:  Solving for Exner, Initial residual = 2.97092e-06, Final residual = 1.76241e-09, No Iterations 8
DICPCG:  Solving for Exner, Initial residual = 1.80514e-09, Final residual = 7.29702e-11, No Iterations 4
diagonal:  Solving for rho, Initial residual = 0, Final residual = 0, No Iterations 0
DICPBiCGStab:  Solving for theta, Initial residual = 5.58051e-08, Final residual = 6.50685e-16, No Iterations 1
time step continuity errors : sum local = 2.13271e-10, global = -2.07643e-11, cumulative = 8.52153e-10
Maximum rho difference fraction = 1.97893e-09
Heat error = 1.17954e-15
ExecutionTime = 12.18 s  ClockTime = 12 s

Time = 98

Courant Number mean: 0.00190788 max: 0.030428 max Ndt = 0.0145398
diagonal:  Solving for rho, Initial residual = 0, Final residual = 0, No Iterations 0
DICPBiCGStab:  Solving for theta, Initial residual = 0.00130709, Final residual = 1.24001e-11, No Iterations 1
DICPCG:  Solving for Exner, Initial residual = 9.2352e-06, Final residual = 4.81305e-09, No Iterations 8
DICPCG:  Solving for Exner, Initial residual = 2.17323e-08, Final residual = 7.51171e-11, No Iterations 7
diagonal:  Solving for rho, Initial residual = 0, Final residual = 0, No Iterations 0
DICPBiCGStab:  Solving for theta, Initial residual = 1.42319e-05, Final residual = 1.54351e-13, No Iterations 1
DICPCG:  Solving for Exner, Initial residual = 2.66714e-06, Final residual = 1.68458e-09, No Iterations 8
DICPCG:  Solving for Exner, Initial residual = 1.72253e-09, Final residual = 6.71504e-11, No Iterations 4
diagonal:  Solving for rho, Initial residual = 0, Final residual = 0, No Iterations 0
DICPBiCGStab:  Solving for theta, Initial residual = 7.71394e-08, Final residual = 9.40313e-16, No Iterations 1
time step continuity errors : sum local = 2.11378e-10, global = -1.53738e-11, cumulative = 8.36779e-10
Maximum rho difference fraction = 1.99954e-09
Heat error = 3.40755e-15
ExecutionTime = 12.43 s  ClockTime = 12 s

Time = 100

Courant Number mean: 0.00192542 max: 0.0310603 max Ndt = 0.0145668
diagonal:  Solving for rho, Initial residual = 0, Final residual = 0, No Iterations 0
DICPBiCGStab:  Solving for theta, Initial residual = 0.00133377, Final residual = 1.31827e-11, No Iterations 1
DICPCG:  Solving for Exner, Initial residual = 9.39948e-06, Final residual = 5.30047e-09, No Iterations 8
DICPCG:  Solving for Exner, Initial residual = 2.23082e-08, Final residual = 7.15545e-11, No Iterations 7
diagonal:  Solving for rho, Initial residual = 0, Final residual = 0, No Iterations 0
DICPBiCGStab:  Solving for theta, Initial residual = 1.42924e-05, Final residual = 1.62959e-13, No Iterations 1
DICPCG:  Solving for Exner, Initial residual = 2.24759e-06, Final residual = 1.62591e-09, No Iterations 8
DICPCG:  Solving for Exner, Initial residual = 1.66238e-09, Final residual = 6.42058e-11, No Iterations 4
diagonal:  Solving for rho, Initial residual = 0, Final residual = 0, No Iterations 0
DICPBiCGStab:  Solving for theta, Initial residual = 7.93177e-08, Final residual = 9.84291e-16, No Iterations 1
time step continuity errors : sum local = 2.12144e-10, global = -1.00561e-11, cumulative = 8.26723e-10
Maximum rho difference fraction = 3.27763e-09
Heat error = -2.22801e-15
ExecutionTime = 12.69 s  ClockTime = 12 s

Time = 102

Courant Number mean: 0.00194662 max: 0.0316875 max Ndt = 0.0145939
diagonal:  Solving for rho, Initial residual = 0, Final residual = 0, No Iterations 0
DICPBiCGStab:  Solving for theta, Initial residual = 0.00136042, Final residual = 1.40026e-11, No Iterations 1
DICPCG:  Solving for Exner, Initial residual = 8.78175e-06, Final residual = 5.25813e-09, No Iterations 8
DICPCG:  Solving for Exner, Initial residual = 2.24617e-08, Final residual = 7.37134e-11, No Iterations 7
diagonal:  Solving for rho, Initial residual = 0, Final residual = 0, No Iterations 0
DICPBiCGStab:  Solving for theta, Initial residual = 1.43435e-05, Final residual = 1.7148e-13, No Iterations 1
DICPCG:  Solving for Exner, Initial residual = 2.61469e-06, Final residual = 1.55904e-09, No Iterations 8
DICPCG:  Solving for Exner, Initial residual = 1.61185e-09, Final residual = 6.46054e-11, No Iterations 4
diagonal:  Solving for rho, Initial residual = 0, Final residual = 0, No Iterations 0
DICPBiCGStab:  Solving for theta, Initial residual = 6.72164e-08, Final residual = 8.42018e-16, No Iterations 1
time step continuity errors : sum local = 2.13888e-10, global = -5.45973e-12, cumulative = 8.21263e-10
Maximum rho difference fraction = 4.67763e-09
Heat error = 3.14543e-15
ExecutionTime = 12.95 s  ClockTime = 12 s

Time = 104

Courant Number mean: 0.00197701 max: 0.0323093 max Ndt = 0.0146212
diagonal:  Solving for rho, Initial residual = 0, Final residual = 0, No Iterations 0
DICPBiCGStab:  Solving for theta, Initial residual = 0.00138696, Final residual = 1.48607e-11, No Iterations 1
DICPCG:  Solving for Exner, Initial residual = 8.75967e-06, Final residual = 5.72671e-09, No Iterations 8
DICPCG:  Solving for Exner, Initial residual = 2.32317e-08, Final residual = 7.6472e-11, No Iterations 7
diagonal:  Solving for rho, Initial residual = 0, Final residual = 0, No Iterations 0
DICPBiCGStab:  Solving for theta, Initial residual = 1.43614e-05, Final residual = 1.79992e-13, No Iterations 1
DICPCG:  Solving for Exner, Initial residual = 2.9428e-06, Final residual = 1.49765e-09, No Iterations 8
DICPCG:  Solving for Exner, Initial residual = 1.54005e-09, Final residual = 6.55637e-11, No Iterations 4
diagonal:  Solving for rho, Initial residual = 0, Final residual = 0, No Iterations 0
DICPBiCGStab:  Solving for theta, Initial residual = 6.69199e-08, Final residual = 7.31056e-16, No Iterations 1
time step continuity errors : sum local = 2.17222e-10, global = -2.82088e-12, cumulative = 8.18442e-10
Maximum rho difference fraction = 9.51325e-09
Heat error = 9.17417e-16
ExecutionTime = 13.2 s  ClockTime = 13 s

Time = 106

Courant Number mean: 0.00201884 max: 0.0329279 max Ndt = 0.0146485
diagonal:  Solving for rho, Initial residual = 0, Final residual = 0, No Iterations 0
DICPBiCGStab:  Solving for theta, Initial residual = 0.00141325, Final residual = 1.5754e-11, No Iterations 1
DICPCG:  Solving for Exner, Initial residual = 9.95681e-06, Final residual = 6.52136e-09, No Iterations 8
DICPCG:  Solving for Exner, Initial residual = 2.41718e-08, Final residual = 7.93961e-11, No Iterations 7
diagonal:  Solving for rho, Initial residual = 0, Final residual = 0, No Iterations 0
DICPBiCGStab:  Solving for theta, Initial residual = 1.43517e-05, Final residual = 1.88635e-13, No Iterations 1
DICPCG:  Solving for Exner, Initial residual = 2.70788e-06, Final residual = 1.60702e-09, No Iterations 8
DICPCG:  Solving for Exner, Initial residual = 1.63421e-09, Final residual = 6.8799e-11, No Iterations 4
diagonal:  Solving for rho, Initial residual = 0, Final residual = 0, No Iterations 0
DICPBiCGStab:  Solving for theta, Initial residual = 6.50334e-08, Final residual = 6.91867e-16, No Iterations 1
time step continuity errors : sum local = 2.21885e-10, global = -3.7591e-12, cumulative = 8.14683e-10
Maximum rho difference fraction = 1.36891e-08
Heat error = 3.93179e-15
ExecutionTime = 13.45 s  ClockTime = 13 s

Time = 108

Courant Number mean: 0.00206922 max: 0.0335457 max Ndt = 0.014676
diagonal:  Solving for rho, Initial residual = 0, Final residual = 0, No Iterations 0
DICPBiCGStab:  Solving for theta, Initial residual = 0.00143922, Final residual = 1.66856e-11, No Iterations 1
DICPCG:  Solving for Exner, Initial residual = 1.07012e-05, Final residual = 6.96008e-09, No Iterations 8
DICPCG:  Solving for Exner, Initial residual = 2.48972e-08, Final residual = 8.5676e-11, No Iterations 7
diagonal:  Solving for rho, Initial residual = 0, Final residual = 0, No Iterations 0
DICPBiCGStab:  Solving for theta, Initial residual = 1.43236e-05, Final residual = 1.97473e-13, No Iterations 1
DICPCG:  Solving for Exner, Initial residual = 2.36605e-06, Final residual = 1.47504e-09, No Iterations 8
DICPCG:  Solving for Exner, Initial residual = 1.52168e-09, Final residual = 6.10468e-11, No Iterations 4
diagonal:  Solving for rho, Initial residual = 0, Final residual = 0, No Iterations 0
DICPBiCGStab:  Solving for theta, Initial residual = 5.73266e-08, Final residual = 6.70547e-16, No Iterations 1
time step continuity errors : sum local = 2.25116e-10, global = -6.91686e-12, cumulative = 8.07766e-10
Maximum rho difference fraction = 1.35664e-08
Heat error = 1.17954e-15
ExecutionTime = 13.7 s  ClockTime = 13 s

Time = 110

Courant Number mean: 0.00211817 max: 0.034163 max Ndt = 0.0147035
diagonal:  Solving for rho, Initial residual = 0, Final residual = 0, No Iterations 0
DICPBiCGStab:  Solving for theta, Initial residual = 0.00146486, Final residual = 1.76552e-11, No Iterations 1
DICPCG:  Solving for Exner, Initial residual = 1.01757e-05, Final residual = 7.16146e-09, No Iterations 8
DICPCG:  Solving for Exner, Initial residual = 2.56577e-08, Final residual = 9.28423e-11, No Iterations 7
diagonal:  Solving for rho, Initial residual = 0, Final residual = 0, No Iterations 0
DICPBiCGStab:  Solving for theta, Initial residual = 1.42828e-05, Final residual = 2.06914e-13, No Iterations 1
DICPCG:  Solving for Exner, Initial residual = 2.28656e-06, Final residual = 1.5918e-09, No Iterations 8
DICPCG:  Solving for Exner, Initial residual = 1.62786e-09, Final residual = 6.92964e-11, No Iterations 4
diagonal:  Solving for rho, Initial residual = 0, Final residual = 0, No Iterations 0
DICPBiCGStab:  Solving for theta, Initial residual = 5.28056e-08, Final residual = 7.1237e-16, No Iterations 1
time step continuity errors : sum local = 2.25095e-10, global = -1.11422e-11, cumulative = 7.96624e-10
Maximum rho difference fraction = 8.25607e-09
Heat error = -3.93179e-16
ExecutionTime = 13.95 s  ClockTime = 13 s

Time = 112

Courant Number mean: 0.00215843 max: 0.034778 max Ndt = 0.014731
diagonal:  Solving for rho, Initial residual = 0, Final residual = 0, No Iterations 0
DICPBiCGStab:  Solving for theta, Initial residual = 0.00149017, Final residual = 1.8661e-11, No Iterations 1
DICPCG:  Solving for Exner, Initial residual = 9.96536e-06, Final residual = 6.91693e-09, No Iterations 8
DICPCG:  Solving for Exner, Initial residual = 2.60186e-08, Final residual = 9.57234e-11, No Iterations 7
diagonal:  Solving for rho, Initial residual = 0, Final residual = 0, No Iterations 0
DICPBiCGStab:  Solving for theta, Initial residual = 1.42406e-05, Final residual = 2.16962e-13, No Iterations 1
DICPCG:  Solving for Exner, Initial residual = 2.70863e-06, Final residual = 1.92971e-09, No Iterations 8
DICPCG:  Solving for Exner, Initial residual = 1.93634e-09, Final residual = 8.64798e-11, No Iterations 4
diagonal:  Solving for rho, Initial residual = 0, Final residual = 0, No Iterations 0
DICPBiCGStab:  Solving for theta, Initial residual = 5.81757e-08, Final residual = 8.39973e-16, No Iterations 1
time step continuity errors : sum local = 2.25571e-10, global = -1.65975e-11, cumulative = 7.80026e-10
Maximum rho difference fraction = 2.77235e-09
Heat error = 3.93179e-16
ExecutionTime = 14.2 s  ClockTime = 14 s

Time = 114

Courant Number mean: 0.00218744 max: 0.0353876 max Ndt = 0.0147584
diagonal:  Solving for rho, Initial residual = 0, Final residual = 0, No Iterations 0
DICPBiCGStab:  Solving for theta, Initial residual = 0.00151532, Final residual = 1.97107e-11, No Iterations 1
DICPCG:  Solving for Exner, Initial residual = 9.79199e-06, Final residual = 7.48548e-09, No Iterations 8
DICPCG:  Solving for Exner, Initial residual = 2.71909e-08, Final residual = 4.19835e-11, No Iterations 8
diagonal:  Solving for rho, Initial residual = 0, Final residual = 0, No Iterations 0
DICPBiCGStab:  Solving for theta, Initial residual = 1.42015e-05, Final residual = 2.27515e-13, No Iterations 1
DICPCG:  Solving for Exner, Initial residual = 2.83614e-06, Final residual = 2.0382e-09, No Iterations 8
DICPCG:  Solving for Exner, Initial residual = 2.05936e-09, Final residual = 9.33391e-11, No Iterations 4
diagonal:  Solving for rho, Initial residual = 0, Final residual = 0, No Iterations 0
DICPBiCGStab:  Solving for theta, Initial residual = 6.45757e-08, Final residual = 9.41756e-16, No Iterations 1
time step continuity errors : sum local = 2.28989e-10, global = -2.23963e-11, cumulative = 7.5763e-10
Maximum rho difference fraction = 5.11805e-09
Heat error = -5.37344e-15
ExecutionTime = 14.45 s  ClockTime = 14 s

Time = 116

Courant Number mean: 0.00221805 max: 0.0359897 max Ndt = 0.0147858
diagonal:  Solving for rho, Initial residual = 0, Final residual = 0, No Iterations 0
DICPBiCGStab:  Solving for theta, Initial residual = 0.00154073, Final residual = 2.07995e-11, No Iterations 1
DICPCG:  Solving for Exner, Initial residual = 1.03744e-05, Final residual = 7.92196e-09, No Iterations 8
DICPCG:  Solving for Exner, Initial residual = 2.79991e-08, Final residual = 4.13253e-11, No Iterations 8
diagonal:  Solving for rho, Initial residual = 0, Final residual = 0, No Iterations 0
DICPBiCGStab:  Solving for theta, Initial residual = 1.41806e-05, Final residual = 2.38571e-13, No Iterations 1
DICPCG:  Solving for Exner, Initial residual = 2.75569e-06, Final residual = 2.03065e-09, No Iterations 8
DICPCG:  Solving for Exner, Initial residual = 2.0896e-09, Final residual = 9.54844e-11, No Iterations 4
diagonal:  Solving for rho, Initial residual = 0, Final residual = 0, No Iterations 0
DICPBiCGStab:  Solving for theta, Initial residual = 6.92646e-08, Final residual = 1.05743e-15, No Iterations 1
time step continuity errors : sum local = 2.32343e-10, global = -2.81331e-11, cumulative = 7.29497e-10
Maximum rho difference fraction = 8.74732e-09
Heat error = 9.17417e-16
ExecutionTime = 14.7 s  ClockTime = 14 s

Time = 118

Courant Number mean: 0.00225179 max: 0.0365842 max Ndt = 0.0148131
diagonal:  Solving for rho, Initial residual = 0, Final residual = 0, No Iterations 0
DICPBiCGStab:  Solving for theta, Initial residual = 0.00156595, Final residual = 2.19136e-11, No Iterations 1
DICPCG:  Solving for Exner, Initial residual = 1.06881e-05, Final residual = 8.27225e-09, No Iterations 8
DICPCG:  Solving for Exner, Initial residual = 2.85898e-08, Final residual = 4.16714e-11, No Iterations 8
diagonal:  Solving for rho, Initial residual = 0, Final residual = 0, No Iterations 0
DICPBiCGStab:  Solving for theta, Initial residual = 1.42055e-05, Final residual = 2.50499e-13, No Iterations 1
DICPCG:  Solving for Exner, Initial residual = 2.79738e-06, Final residual = 2.20948e-09, No Iterations 8
DICPCG:  Solving for Exner, Initial residual = 2.26367e-09, Final residual = 3.91348e-11, No Iterations 5
diagonal:  Solving for rho, Initial residual = 0, Final residual = 0, No Iterations 0
DICPBiCGStab:  Solving for theta, Initial residual = 7.69077e-08, Final residual = 1.20147e-15, No Iterations 1
[...]
DICPBiCGStab:  Solving for theta, Initial residual = 3.03972e-06, Final residual = 6.92718e-13, No Iterations 1
time step continuity errors : sum local = 1.09505e-09, global = 3.19586e-10, cumulative = 4.47708e-08
Maximum rho difference fraction = 2.25708e-08
Heat error = 3.78762e-14
ExecutionTime = 126.03 s  ClockTime = 126 s

Time = 972

Courant Number mean: 0.0221785 max: 0.14506 max Ndt = 0.0180046
diagonal:  Solving for rho, Initial residual = 0, Final residual = 0, No Iterations 0
DICPBiCGStab:  Solving for theta, Initial residual = 0.00572566, Final residual = 1.21548e-09, No Iterations 1
DICPCG:  Solving for Exner, Initial residual = 9.77248e-06, Final residual = 8.10354e-09, No Iterations 8
DICPCG:  Solving for Exner, Initial residual = 2.16206e-07, Final residual = 1.53338e-10, No Iterations 8
diagonal:  Solving for rho, Initial residual = 0, Final residual = 0, No Iterations 0
DICPBiCGStab:  Solving for theta, Initial residual = 0.000115339, Final residual = 2.32823e-11, No Iterations 1
DICPCG:  Solving for Exner, Initial residual = 1.22699e-06, Final residual = 9.59545e-10, No Iterations 8
DICPCG:  Solving for Exner, Initial residual = 3.24087e-09, Final residual = 8.51003e-11, No Iterations 4
diagonal:  Solving for rho, Initial residual = 0, Final residual = 0, No Iterations 0
DICPBiCGStab:  Solving for theta, Initial residual = 3.02776e-06, Final residual = 6.89399e-13, No Iterations 1
time step continuity errors : sum local = 1.09406e-09, global = 3.06315e-10, cumulative = 4.50772e-08
Maximum rho difference fraction = 2.26082e-08
Heat error = 4.14148e-14
ExecutionTime = 126.3 s  ClockTime = 126 s

Time = 974

Courant Number mean: 0.0222207 max: 0.144886 max Ndt = 0.0180027
diagonal:  Solving for rho, Initial residual = 0, Final residual = 0, No Iterations 0
DICPBiCGStab:  Solving for theta, Initial residual = 0.00571864, Final residual = 1.2162e-09, No Iterations 1
DICPCG:  Solving for Exner, Initial residual = 9.73242e-06, Final residual = 7.88012e-09, No Iterations 8
DICPCG:  Solving for Exner, Initial residual = 2.15254e-07, Final residual = 1.52569e-10, No Iterations 8
diagonal:  Solving for rho, Initial residual = 0, Final residual = 0, No Iterations 0
DICPBiCGStab:  Solving for theta, Initial residual = 0.000115193, Final residual = 2.31469e-11, No Iterations 1
DICPCG:  Solving for Exner, Initial residual = 1.02934e-06, Final residual = 1.00384e-09, No Iterations 8
DICPCG:  Solving for Exner, Initial residual = 3.27989e-09, Final residual = 8.97375e-11, No Iterations 4
diagonal:  Solving for rho, Initial residual = 0, Final residual = 0, No Iterations 0
DICPBiCGStab:  Solving for theta, Initial residual = 3.01769e-06, Final residual = 6.90374e-13, No Iterations 1
time step continuity errors : sum local = 1.08844e-09, global = 2.93984e-10, cumulative = 4.53711e-08
Maximum rho difference fraction = 2.26142e-08
Heat error = 3.81383e-14
ExecutionTime = 126.56 s  ClockTime = 126 s

Time = 976

Courant Number mean: 0.0222613 max: 0.144676 max Ndt = 0.0179981
diagonal:  Solving for rho, Initial residual = 0, Final residual = 0, No Iterations 0
DICPBiCGStab:  Solving for theta, Initial residual = 0.00570926, Final residual = 1.21533e-09, No Iterations 1
DICPCG:  Solving for Exner, Initial residual = 8.92368e-06, Final residual = 7.39865e-09, No Iterations 8
DICPCG:  Solving for Exner, Initial residual = 2.1396e-07, Final residual = 1.48946e-10, No Iterations 8
diagonal:  Solving for rho, Initial residual = 0, Final residual = 0, No Iterations 0
DICPBiCGStab:  Solving for theta, Initial residual = 0.000115085, Final residual = 2.30427e-11, No Iterations 1
DICPCG:  Solving for Exner, Initial residual = 1.23028e-06, Final residual = 1.18266e-09, No Iterations 8
DICPCG:  Solving for Exner, Initial residual = 3.41401e-09, Final residual = 9.29932e-11, No Iterations 4
diagonal:  Solving for rho, Initial residual = 0, Final residual = 0, No Iterations 0
DICPBiCGStab:  Solving for theta, Initial residual = 3.01029e-06, Final residual = 6.93692e-13, No Iterations 1
time step continuity errors : sum local = 1.08461e-09, global = 2.84003e-10, cumulative = 4.56551e-08
Maximum rho difference fraction = 2.25744e-08
Heat error = 3.68277e-14
ExecutionTime = 126.81 s  ClockTime = 126 s

Time = 978

Courant Number mean: 0.0223016 max: 0.144607 max Ndt = 0.0179908
diagonal:  Solving for rho, Initial residual = 0, Final residual = 0, No Iterations 0
DICPBiCGStab:  Solving for theta, Initial residual = 0.00570554, Final residual = 1.21538e-09, No Iterations 1
DICPCG:  Solving for Exner, Initial residual = 7.44358e-06, Final residual = 6.57787e-09, No Iterations 8
DICPCG:  Solving for Exner, Initial residual = 2.12564e-07, Final residual = 1.43736e-10, No Iterations 8
diagonal:  Solving for rho, Initial residual = 0, Final residual = 0, No Iterations 0
DICPBiCGStab:  Solving for theta, Initial residual = 0.000114932, Final residual = 2.29455e-11, No Iterations 1
DICPCG:  Solving for Exner, Initial residual = 1.61569e-06, Final residual = 1.41112e-09, No Iterations 8
DICPCG:  Solving for Exner, Initial residual = 3.61017e-09, Final residual = 4.87162e-11, No Iterations 5
diagonal:  Solving for rho, Initial residual = 0, Final residual = 0, No Iterations 0
DICPBiCGStab:  Solving for theta, Initial residual = 3.00712e-06, Final residual = 6.95138e-13, No Iterations 1
time step continuity errors : sum local = 1.08187e-09, global = 2.82796e-10, cumulative = 4.59379e-08
Maximum rho difference fraction = 2.27067e-08
Heat error = 4.25943e-14
ExecutionTime = 127.08 s  ClockTime = 127 s

Time = 980

Courant Number mean: 0.0223425 max: 0.144695 max Ndt = 0.0179808
diagonal:  Solving for rho, Initial residual = 0, Final residual = 0, No Iterations 0
DICPBiCGStab:  Solving for theta, Initial residual = 0.00570074, Final residual = 1.2155e-09, No Iterations 1
DICPCG:  Solving for Exner, Initial residual = 5.72829e-06, Final residual = 5.53228e-09, No Iterations 8
DICPCG:  Solving for Exner, Initial residual = 2.11341e-07, Final residual = 1.40438e-10, No Iterations 8
diagonal:  Solving for rho, Initial residual = 0, Final residual = 0, No Iterations 0
DICPBiCGStab:  Solving for theta, Initial residual = 0.00011469, Final residual = 2.28723e-11, No Iterations 1
DICPCG:  Solving for Exner, Initial residual = 1.92693e-06, Final residual = 1.58691e-09, No Iterations 8
DICPCG:  Solving for Exner, Initial residual = 3.7628e-09, Final residual = 5.08974e-11, No Iterations 5
diagonal:  Solving for rho, Initial residual = 0, Final residual = 0, No Iterations 0
DICPBiCGStab:  Solving for theta, Initial residual = 3.00727e-06, Final residual = 6.96194e-13, No Iterations 1
time step continuity errors : sum local = 1.08059e-09, global = 2.82716e-10, cumulative = 4.62207e-08
Maximum rho difference fraction = 2.28713e-08
Heat error = 3.90557e-14
ExecutionTime = 127.35 s  ClockTime = 127 s

Time = 982

Courant Number mean: 0.0223855 max: 0.14475 max Ndt = 0.0179681
diagonal:  Solving for rho, Initial residual = 0, Final residual = 0, No Iterations 0
DICPBiCGStab:  Solving for theta, Initial residual = 0.00569475, Final residual = 1.21615e-09, No Iterations 1
DICPCG:  Solving for Exner, Initial residual = 5.22431e-06, Final residual = 4.77896e-09, No Iterations 8
DICPCG:  Solving for Exner, Initial residual = 2.10707e-07, Final residual = 1.44149e-10, No Iterations 8
diagonal:  Solving for rho, Initial residual = 0, Final residual = 0, No Iterations 0
DICPBiCGStab:  Solving for theta, Initial residual = 0.000114309, Final residual = 2.29022e-11, No Iterations 1
DICPCG:  Solving for Exner, Initial residual = 2.09243e-06, Final residual = 1.66014e-09, No Iterations 8
DICPCG:  Solving for Exner, Initial residual = 3.82533e-09, Final residual = 5.12563e-11, No Iterations 5
diagonal:  Solving for rho, Initial residual = 0, Final residual = 0, No Iterations 0
DICPBiCGStab:  Solving for theta, Initial residual = 3.01428e-06, Final residual = 6.97221e-13, No Iterations 1
time step continuity errors : sum local = 1.08043e-09, global = 2.82629e-10, cumulative = 4.65033e-08
Maximum rho difference fraction = 2.30654e-08
Heat error = 4.1808e-14
ExecutionTime = 127.6 s  ClockTime = 127 s

Time = 984

Courant Number mean: 0.02243 max: 0.144776 max Ndt = 0.0179528
diagonal:  Solving for rho, Initial residual = 0, Final residual = 0, No Iterations 0
DICPBiCGStab:  Solving for theta, Initial residual = 0.00568976, Final residual = 1.2157e-09, No Iterations 1
DICPCG:  Solving for Exner, Initial residual = 6.28866e-06, Final residual = 4.30959e-09, No Iterations 8
DICPCG:  Solving for Exner, Initial residual = 2.10006e-07, Final residual = 1.36664e-10, No Iterations 8
diagonal:  Solving for rho, Initial residual = 0, Final residual = 0, No Iterations 0
DICPBiCGStab:  Solving for theta, Initial residual = 0.000113888, Final residual = 2.28745e-11, No Iterations 1
DICPCG:  Solving for Exner, Initial residual = 2.11283e-06, Final residual = 1.791e-09, No Iterations 8
DICPCG:  Solving for Exner, Initial residual = 3.94489e-09, Final residual = 5.21984e-11, No Iterations 5
diagonal:  Solving for rho, Initial residual = 0, Final residual = 0, No Iterations 0
DICPBiCGStab:  Solving for theta, Initial residual = 3.0157e-06, Final residual = 6.97202e-13, No Iterations 1
time step continuity errors : sum local = 1.08124e-09, global = 2.82061e-10, cumulative = 4.67853e-08
Maximum rho difference fraction = 2.32766e-08
Heat error = 4.03663e-14
ExecutionTime = 127.87 s  ClockTime = 127 s

Time = 986

Courant Number mean: 0.0224759 max: 0.144776 max Ndt = 0.0179348
diagonal:  Solving for rho, Initial residual = 0, Final residual = 0, No Iterations 0
DICPBiCGStab:  Solving for theta, Initial residual = 0.00568754, Final residual = 1.21507e-09, No Iterations 1
DICPCG:  Solving for Exner, Initial residual = 7.51155e-06, Final residual = 4.80837e-09, No Iterations 8
DICPCG:  Solving for Exner, Initial residual = 2.09652e-07, Final residual = 1.31182e-10, No Iterations 8
diagonal:  Solving for rho, Initial residual = 0, Final residual = 0, No Iterations 0
DICPBiCGStab:  Solving for theta, Initial residual = 0.000113507, Final residual = 2.27976e-11, No Iterations 1
DICPCG:  Solving for Exner, Initial residual = 1.97465e-06, Final residual = 1.85341e-09, No Iterations 8
DICPCG:  Solving for Exner, Initial residual = 3.97319e-09, Final residual = 5.01581e-11, No Iterations 5
diagonal:  Solving for rho, Initial residual = 0, Final residual = 0, No Iterations 0
DICPBiCGStab:  Solving for theta, Initial residual = 3.00242e-06, Final residual = 6.94961e-13, No Iterations 1
time step continuity errors : sum local = 1.08276e-09, global = 2.80548e-10, cumulative = 4.70659e-08
Maximum rho difference fraction = 2.3479e-08
Heat error = 4.41671e-14
ExecutionTime = 128.14 s  ClockTime = 128 s

Time = 988

Courant Number mean: 0.0225235 max: 0.144751 max Ndt = 0.0179141
diagonal:  Solving for rho, Initial residual = 0, Final residual = 0, No Iterations 0
DICPBiCGStab:  Solving for theta, Initial residual = 0.00568421, Final residual = 1.21378e-09, No Iterations 1
DICPCG:  Solving for Exner, Initial residual = 8.431e-06, Final residual = 5.67382e-09, No Iterations 8
DICPCG:  Solving for Exner, Initial residual = 2.09697e-07, Final residual = 1.29696e-10, No Iterations 8
diagonal:  Solving for rho, Initial residual = 0, Final residual = 0, No Iterations 0
DICPBiCGStab:  Solving for theta, Initial residual = 0.00011306, Final residual = 2.27002e-11, No Iterations 1
DICPCG:  Solving for Exner, Initial residual = 1.68968e-06, Final residual = 6.59584e-10, No Iterations 9
DICPCG:  Solving for Exner, Initial residual = 2.95548e-09, Final residual = 6.41253e-11, No Iterations 4
diagonal:  Solving for rho, Initial residual = 0, Final residual = 0, No Iterations 0
DICPBiCGStab:  Solving for theta, Initial residual = 2.98435e-06, Final residual = 6.90841e-13, No Iterations 1
time step continuity errors : sum local = 1.07986e-09, global = 2.71477e-10, cumulative = 4.73374e-08
Maximum rho difference fraction = 2.33388e-08
Heat error = 3.86626e-14
ExecutionTime = 128.39 s  ClockTime = 128 s

Time = 990

Courant Number mean: 0.0225726 max: 0.144705 max Ndt = 0.0178908
diagonal:  Solving for rho, Initial residual = 0, Final residual = 0, No Iterations 0
DICPBiCGStab:  Solving for theta, Initial residual = 0.0056765, Final residual = 1.2125e-09, No Iterations 1
DICPCG:  Solving for Exner, Initial residual = 8.83312e-06, Final residual = 6.56072e-09, No Iterations 8
DICPCG:  Solving for Exner, Initial residual = 2.10059e-07, Final residual = 1.29008e-10, No Iterations 8
diagonal:  Solving for rho, Initial residual = 0, Final residual = 0, No Iterations 0
DICPBiCGStab:  Solving for theta, Initial residual = 0.000112792, Final residual = 2.26091e-11, No Iterations 1
DICPCG:  Solving for Exner, Initial residual = 1.42203e-06, Final residual = 6.57902e-10, No Iterations 9
DICPCG:  Solving for Exner, Initial residual = 2.91969e-09, Final residual = 6.68605e-11, No Iterations 4
diagonal:  Solving for rho, Initial residual = 0, Final residual = 0, No Iterations 0
DICPBiCGStab:  Solving for theta, Initial residual = 2.96859e-06, Final residual = 6.84294e-13, No Iterations 1
time step continuity errors : sum local = 1.07373e-09, global = 2.62156e-10, cumulative = 4.75995e-08
Maximum rho difference fraction = 2.32001e-08
Heat error = 3.63035e-14
ExecutionTime = 128.65 s  ClockTime = 128 s

Time = 992

Courant Number mean: 0.0226219 max: 0.144727 max Ndt = 0.0178648
diagonal:  Solving for rho, Initial residual = 0, Final residual = 0, No Iterations 0
DICPBiCGStab:  Solving for theta, Initial residual = 0.00567304, Final residual = 1.21019e-09, No Iterations 1
DICPCG:  Solving for Exner, Initial residual = 8.94583e-06, Final residual = 7.04267e-09, No Iterations 8
DICPCG:  Solving for Exner, Initial residual = 2.10282e-07, Final residual = 1.28534e-10, No Iterations 8
diagonal:  Solving for rho, Initial residual = 0, Final residual = 0, No Iterations 0
DICPBiCGStab:  Solving for theta, Initial residual = 0.000112864, Final residual = 2.24572e-11, No Iterations 1
DICPCG:  Solving for Exner, Initial residual = 1.39623e-06, Final residual = 6.32013e-10, No Iterations 9
DICPCG:  Solving for Exner, Initial residual = 2.8721e-09, Final residual = 6.97787e-11, No Iterations 4
diagonal:  Solving for rho, Initial residual = 0, Final residual = 0, No Iterations 0
DICPBiCGStab:  Solving for theta, Initial residual = 2.95747e-06, Final residual = 6.75864e-13, No Iterations 1
time step continuity errors : sum local = 1.06756e-09, global = 2.54778e-10, cumulative = 4.78543e-08
Maximum rho difference fraction = 2.30596e-08
Heat error = 4.44292e-14
ExecutionTime = 128.91 s  ClockTime = 129 s

Time = 994

Courant Number mean: 0.0226711 max: 0.144816 max Ndt = 0.0178362
diagonal:  Solving for rho, Initial residual = 0, Final residual = 0, No Iterations 0
DICPBiCGStab:  Solving for theta, Initial residual = 0.00566958, Final residual = 1.20873e-09, No Iterations 1
DICPCG:  Solving for Exner, Initial residual = 8.52257e-06, Final residual = 7.11823e-09, No Iterations 8
DICPCG:  Solving for Exner, Initial residual = 2.09965e-07, Final residual = 1.27514e-10, No Iterations 8
diagonal:  Solving for rho, Initial residual = 0, Final residual = 0, No Iterations 0
DICPBiCGStab:  Solving for theta, Initial residual = 0.000113165, Final residual = 2.23493e-11, No Iterations 1
DICPCG:  Solving for Exner, Initial residual = 1.57087e-06, Final residual = 1.50216e-09, No Iterations 8
DICPCG:  Solving for Exner, Initial residual = 3.64964e-09, Final residual = 4.66967e-11, No Iterations 5
diagonal:  Solving for rho, Initial residual = 0, Final residual = 0, No Iterations 0
DICPBiCGStab:  Solving for theta, Initial residual = 2.94443e-06, Final residual = 6.67096e-13, No Iterations 1
time step continuity errors : sum local = 1.06547e-09, global = 2.53394e-10, cumulative = 4.81077e-08
Maximum rho difference fraction = 2.32277e-08
Heat error = 4.39049e-14
ExecutionTime = 129.19 s  ClockTime = 129 s

Time = 996

Courant Number mean: 0.0227195 max: 0.144891 max Ndt = 0.0178048
diagonal:  Solving for rho, Initial residual = 0, Final residual = 0, No Iterations 0
DICPBiCGStab:  Solving for theta, Initial residual = 0.00566929, Final residual = 1.20856e-09, No Iterations 1
DICPCG:  Solving for Exner, Initial residual = 8.11385e-06, Final residual = 6.98766e-09, No Iterations 8
DICPCG:  Solving for Exner, Initial residual = 2.09213e-07, Final residual = 1.26231e-10, No Iterations 8
diagonal:  Solving for rho, Initial residual = 0, Final residual = 0, No Iterations 0
DICPBiCGStab:  Solving for theta, Initial residual = 0.000113482, Final residual = 2.23098e-11, No Iterations 1
DICPCG:  Solving for Exner, Initial residual = 1.791e-06, Final residual = 1.42875e-09, No Iterations 8
DICPCG:  Solving for Exner, Initial residual = 3.62771e-09, Final residual = 4.52482e-11, No Iterations 5
diagonal:  Solving for rho, Initial residual = 0, Final residual = 0, No Iterations 0
DICPBiCGStab:  Solving for theta, Initial residual = 2.93617e-06, Final residual = 6.6225e-13, No Iterations 1
time step continuity errors : sum local = 1.06348e-09, global = 2.52955e-10, cumulative = 4.83607e-08
Maximum rho difference fraction = 2.33931e-08
Heat error = 4.32496e-14
ExecutionTime = 129.46 s  ClockTime = 129 s

Time = 998

Courant Number mean: 0.0227673 max: 0.144954 max Ndt = 0.0177707
diagonal:  Solving for rho, Initial residual = 0, Final residual = 0, No Iterations 0
DICPBiCGStab:  Solving for theta, Initial residual = 0.00566885, Final residual = 1.21267e-09, No Iterations 1
DICPCG:  Solving for Exner, Initial residual = 7.8551e-06, Final residual = 6.84821e-09, No Iterations 8
DICPCG:  Solving for Exner, Initial residual = 2.08275e-07, Final residual = 1.25959e-10, No Iterations 8
diagonal:  Solving for rho, Initial residual = 0, Final residual = 0, No Iterations 0
DICPBiCGStab:  Solving for theta, Initial residual = 0.000113716, Final residual = 2.22579e-11, No Iterations 1
DICPCG:  Solving for Exner, Initial residual = 1.88576e-06, Final residual = 1.31702e-09, No Iterations 8
DICPCG:  Solving for Exner, Initial residual = 3.52044e-09, Final residual = 8.9741e-11, No Iterations 4
diagonal:  Solving for rho, Initial residual = 0, Final residual = 0, No Iterations 0
DICPBiCGStab:  Solving for theta, Initial residual = 2.92878e-06, Final residual = 6.63609e-13, No Iterations 1
time step continuity errors : sum local = 1.07158e-09, global = 2.65434e-10, cumulative = 4.86261e-08
Maximum rho difference fraction = 2.32082e-08
Heat error = 3.7352e-14
ExecutionTime = 129.72 s  ClockTime = 129 s

Time = 1000

Courant Number mean: 0.0228151 max: 0.145004 max Ndt = 0.0177338
diagonal:  Solving for rho, Initial residual = 0, Final residual = 0, No Iterations 0
DICPBiCGStab:  Solving for theta, Initial residual = 0.005667, Final residual = 1.21707e-09, No Iterations 1
DICPCG:  Solving for Exner, Initial residual = 7.82422e-06, Final residual = 6.82821e-09, No Iterations 8
DICPCG:  Solving for Exner, Initial residual = 2.0737e-07, Final residual = 1.26911e-10, No Iterations 8
diagonal:  Solving for rho, Initial residual = 0, Final residual = 0, No Iterations 0
DICPBiCGStab:  Solving for theta, Initial residual = 0.000113767, Final residual = 2.22146e-11, No Iterations 1
DICPCG:  Solving for Exner, Initial residual = 1.77248e-06, Final residual = 1.45227e-09, No Iterations 8
DICPCG:  Solving for Exner, Initial residual = 3.66617e-09, Final residual = 4.8204e-11, No Iterations 5
diagonal:  Solving for rho, Initial residual = 0, Final residual = 0, No Iterations 0
DICPBiCGStab:  Solving for theta, Initial residual = 2.92441e-06, Final residual = 6.66182e-13, No Iterations 1
time step continuity errors : sum local = 1.07162e-09, global = 2.69243e-10, cumulative = 4.88953e-08
Maximum rho difference fraction = 2.34051e-08
Heat error = 3.42065e-14
ExecutionTime = 129.99 s  ClockTime = 130 s

End

