/*---------------------------------------------------------------------------*\
  =========                 |
  \\      /  F ield         | OpenFOAM: The Open Source CFD Toolbox
   \\    /   O peration     | Website:  https://openfoam.org
    \\  /    A nd           | Version:  dev
     \\/     M anipulation  |
\*---------------------------------------------------------------------------*/
Build  : dev-7d6b7a78d758
Exec   : multiFluidBoussinesqFoam
Date   : Aug 28 2019
Time   : 11:01:30
Host   : "daniel-XPS-15-9560"
PID    : 17650
I/O    : uncollated
Case   : /media/daniel/STORAGE/OpenFOAM-run/danRun/partitioned/RayleighBenard/singleColumn/Ra_1e+05_multiFluidBoussinesqFoam_Y50_AR100_symmetricBCs_uniformSigma_gamma_conservationTesting
nProcs : 1
sigFpe : Enabling floating point exception trapping (FOAM_SIGFPE).
fileModificationChecking : Monitoring run-time modified files using timeStampMaster (fileModificationSkew 10)
allowSystemOperations : Allowing user-supplied system call operations

// * * * * * * * * * * * * * * * * * * * * * * * * * * * * * * * * * * * * * //
Create time

Create mesh for time = 0


Reading transferProperties

Reading environmentalProperties
Reading field P

Reading in sigma in each partition

Reading in b in each partition

Reading in cell centre velocity, u, in each partition

Calculating the flux in each partition

Storing necessary old times and rates of change

Initialising the mass transfer between partitions

Initialising the drag between partitions

Starting time loop

sigma[1] goes from 0.32 to 0.684
sigmaf.sum goes from 1 to 1
Time = 0.1

Courant Number mean: 0.000106240740892 max: 0.000533658011536 partition maximums: 2(0.370272443637 0.368075776771)
DICPCG:  Solving for Pi.stable, Initial residual = 1, Final residual = 1.38824766792e-15, No Iterations 2
DICPCG:  Solving for Pi.buoyant, Initial residual = 1, Final residual = 1.41642679235e-15, No Iterations 2
DICPCG:  Solving for P, Initial residual = 0.36973183772, Final residual = 2.30895711008e-14, No Iterations 4
DICPCG:  Solving for P, Initial residual = 0.272694869984, Final residual = 2.19824352318e-14, No Iterations 4
DICPCG:  Solving for Pi.stable, Initial residual = 0.00588031892853, Final residual = 6.46565711508e-17, No Iterations 2
DICPCG:  Solving for Pi.buoyant, Initial residual = 0.00566466846967, Final residual = 5.99986241923e-17, No Iterations 2
DICPCG:  Solving for P, Initial residual = 0.264444655863, Final residual = 2.12302120712e-14, No Iterations 4
DICPCG:  Solving for P, Initial residual = 0.281931570022, Final residual = 2.26222868276e-14, No Iterations 4
ExecutionTime = 0.06 s  ClockTime = 0 s

fieldMinMax minMaxMagU write:
    min(mag(u)) = 0 in cell 0 at location (5 0.01 0)
    max(mag(u)) = 0.000323073409762 in cell 31 at location (5 0.01 0.63)
    min(mag(u.stable)) = 0 in cell 0 at location (5 0.01 0)
    max(mag(u.stable)) = 0.0701694629869 in cell 22 at location (5 0.01 0.45)
    min(mag(u.buoyant)) = 0 in cell 0 at location (5 0.01 0)
    max(mag(u.buoyant)) = 0.069733522997 in cell 26 at location (5 0.01 0.53)

fieldMinMax minMaxDivU write:
    min(divu) = -0.0202986384181 in cell 0 at location (5 0.01 0.01)
    max(divu) = 0.0449549945452 in cell 11 at location (5 0.01 0.23)

Time = 0.2

Courant Number mean: 2.09169704994e-16 max: 5.05509262948e-16 partition maximums: 2(0.350847314935 0.348667614985)
DICPCG:  Solving for Pi.stable, Initial residual = 0.0574463256573, Final residual = 4.35188554531e-16, No Iterations 2
DICPCG:  Solving for Pi.buoyant, Initial residual = 0.0578943721134, Final residual = 4.39792865765e-16, No Iterations 2
DICPCG:  Solving for P, Initial residual = 0.156534834121, Final residual = 1.61746342138e-14, No Iterations 4
DICPCG:  Solving for P, Initial residual = 0.298873014075, Final residual = 3.09185024406e-14, No Iterations 4
DICPCG:  Solving for Pi.stable, Initial residual = 0.00171579206476, Final residual = 2.59635054239e-17, No Iterations 2
DICPCG:  Solving for Pi.buoyant, Initial residual = 0.00172862950535, Final residual = 2.53344783415e-17, No Iterations 2
DICPCG:  Solving for P, Initial residual = 0.15126196025, Final residual = 1.61786307048e-14, No Iterations 4
DICPCG:  Solving for P, Initial residual = 0.280226743032, Final residual = 2.99158971374e-14, No Iterations 4
ExecutionTime = 0.07 s  ClockTime = 0 s

fieldMinMax minMaxMagU write:
    min(mag(u)) = 0 in cell 0 at location (5 0.01 0)
    max(mag(u)) = 0.000315417484144 in cell 1 at location (5 0.01 0.03)
    min(mag(u.stable)) = 0 in cell 0 at location (5 0.01 0)
    max(mag(u.stable)) = 0.0668086123571 in cell 22 at location (5 0.01 0.45)
    min(mag(u.buoyant)) = 0 in cell 0 at location (5 0.01 0)
    max(mag(u.buoyant)) = 0.0663780083626 in cell 26 at location (5 0.01 0.53)

fieldMinMax minMaxDivU write:
    min(divu) = -0.0256300971433 in cell 0 at location (5 0.01 0)
    max(divu) = 0.046583743038 in cell 44 at location (5 0.01 0.89)

Time = 0.3

Courant Number mean: 1.85290153539e-16 max: 4.01154805661e-16 partition maximums: 2(0.334043061786 0.331890041813)
DICPCG:  Solving for Pi.stable, Initial residual = 0.0536657692804, Final residual = 3.06704681305e-16, No Iterations 2
DICPCG:  Solving for Pi.buoyant, Initial residual = 0.0537616576159, Final residual = 3.30411853218e-16, No Iterations 2
DICPCG:  Solving for P, Initial residual = 0.222487934254, Final residual = 1.98809011371e-14, No Iterations 4
DICPCG:  Solving for P, Initial residual = 0.30106023099, Final residual = 2.6980117335e-14, No Iterations 4
DICPCG:  Solving for Pi.stable, Initial residual = 0.0015614097433, Final residual = 2.2581525206e-17, No Iterations 2
DICPCG:  Solving for Pi.buoyant, Initial residual = 0.00157731115804, Final residual = 2.18421125342e-17, No Iterations 2
DICPCG:  Solving for P, Initial residual = 0.217624957213, Final residual = 1.95534231159e-14, No Iterations 4
DICPCG:  Solving for P, Initial residual = 0.307338237527, Final residual = 2.76124007737e-14, No Iterations 4
ExecutionTime = 0.07 s  ClockTime = 0 s

fieldMinMax minMaxMagU write:
    min(mag(u)) = 0 in cell 0 at location (5 0.01 0)
    max(mag(u)) = 0.000375552072471 in cell 1 at location (5 0.01 0.03)
    min(mag(u.stable)) = 0 in cell 0 at location (5 0.01 0)
    max(mag(u.stable)) = 0.0638044228499 in cell 21 at location (5 0.01 0.43)
    min(mag(u.buoyant)) = 0 in cell 0 at location (5 0.01 0)
    max(mag(u.buoyant)) = 0.063380341237 in cell 27 at location (5 0.01 0.55)

fieldMinMax minMaxDivU write:
    min(divu) = -0.0306874667188 in cell 0 at location (5 0.01 0.01)
    max(divu) = 0.0489756945837 in cell 44 at location (5 0.01 0.89)

Time = 0.4

Courant Number mean: 1.79164412527e-16 max: 4.16062584088e-16 partition maximums: 2(0.319022114249 0.316901706185)
DICPCG:  Solving for Pi.stable, Initial residual = 0.0524530498952, Final residual = 3.58711227763e-16, No Iterations 2
DICPCG:  Solving for Pi.buoyant, Initial residual = 0.0526438774357, Final residual = 3.53514168148e-16, No Iterations 2
DICPCG:  Solving for P, Initial residual = 0.172978593176, Final residual = 1.78143892244e-14, No Iterations 4
DICPCG:  Solving for P, Initial residual = 0.343772941281, Final residual = 3.57226342553e-14, No Iterations 4
DICPCG:  Solving for Pi.stable, Initial residual = 0.00144999972025, Final residual = 2.09912835794e-17, No Iterations 2
DICPCG:  Solving for Pi.buoyant, Initial residual = 0.00146149240013, Final residual = 2.04223737331e-17, No Iterations 2
DICPCG:  Solving for P, Initial residual = 0.169433243546, Final residual = 1.70751621804e-14, No Iterations 4
DICPCG:  Solving for P, Initial residual = 0.339212944248, Final residual = 3.41855443521e-14, No Iterations 4
ExecutionTime = 0.08 s  ClockTime = 0 s

fieldMinMax minMaxMagU write:
    min(mag(u)) = 0 in cell 0 at location (5 0.01 0)
    max(mag(u)) = 0.000432609701102 in cell 1 at location (5 0.01 0.03)
    min(mag(u.stable)) = 0 in cell 0 at location (5 0.01 0)
    max(mag(u.stable)) = 0.0611377064709 in cell 21 at location (5 0.01 0.43)
    min(mag(u.buoyant)) = 0 in cell 0 at location (5 0.01 0)
    max(mag(u.buoyant)) = 0.0606939272632 in cell 27 at location (5 0.01 0.55)

fieldMinMax minMaxDivU write:
    min(divu) = -0.0354922599886 in cell 0 at location (5 0.01 0.01)
    max(divu) = 0.0511611179807 in cell 44 at location (5 0.01 0.89)

Time = 0.5

Courant Number mean: 1.99710045193e-16 max: 4.11996826586e-16 partition maximums: 2(0.305688532355 0.303469636316)
DICPCG:  Solving for Pi.stable, Initial residual = 0.0495003574741, Final residual = 1.44515617708e-16, No Iterations 2
DICPCG:  Solving for Pi.buoyant, Initial residual = 0.0496876874375, Final residual = 1.63982691091e-16, No Iterations 2
DICPCG:  Solving for P, Initial residual = 0.201740601356, Final residual = 1.83030585963e-14, No Iterations 4
DICPCG:  Solving for P, Initial residual = 0.345450151751, Final residual = 3.16845589792e-14, No Iterations 4
DICPCG:  Solving for Pi.stable, Initial residual = 0.00142208762979, Final residual = 2.07819510647e-17, No Iterations 2
DICPCG:  Solving for Pi.buoyant, Initial residual = 0.00143293383316, Final residual = 1.99963286845e-17, No Iterations 2
DICPCG:  Solving for P, Initial residual = 0.197955544167, Final residual = 1.74878620182e-14, No Iterations 4
DICPCG:  Solving for P, Initial residual = 0.354049921512, Final residual = 3.13050620194e-14, No Iterations 4
ExecutionTime = 0.09 s  ClockTime = 0 s

fieldMinMax minMaxMagU write:
    min(mag(u)) = 0 in cell 0 at location (5 0.01 0)
    max(mag(u)) = 0.000486971852638 in cell 1 at location (5 0.01 0.03)
    min(mag(u.stable)) = 0 in cell 0 at location (5 0.01 0)
    max(mag(u.stable)) = 0.0587203905568 in cell 21 at location (5 0.01 0.43)
    min(mag(u.buoyant)) = 0 in cell 0 at location (5 0.01 0)
    max(mag(u.buoyant)) = 0.0582626437999 in cell 27 at location (5 0.01 0.55)

fieldMinMax minMaxDivU write:
    min(divu) = -0.0400752949016 in cell 0 at location (5 0.01 0)
    max(divu) = 0.0531501780131 in cell 44 at location (5 0.01 0.89)

Time = 0.6

Courant Number mean: 2.24375646312e-16 max: 4.74338452537e-16 partition maximums: 2(0.293601952784 0.291313218999)
DICPCG:  Solving for Pi.stable, Initial residual = 0.0480686481761, Final residual = 3.14954182505e-16, No Iterations 2
DICPCG:  Solving for Pi.buoyant, Initial residual = 0.0483442069986, Final residual = 3.08803613107e-16, No Iterations 2
DICPCG:  Solving for P, Initial residual = 0.183926791499, Final residual = 1.64903367303e-14, No Iterations 4
DICPCG:  Solving for P, Initial residual = 0.375143710703, Final residual = 3.42202453358e-14, No Iterations 4
DICPCG:  Solving for Pi.stable, Initial residual = 0.00141223875085, Final residual = 2.07992898878e-17, No Iterations 2
DICPCG:  Solving for Pi.buoyant, Initial residual = 0.00142460447109, Final residual = 1.97733687049e-17, No Iterations 2
DICPCG:  Solving for P, Initial residual = 0.187870694913, Final residual = 1.57534051127e-14, No Iterations 4
DICPCG:  Solving for P, Initial residual = 0.382809484908, Final residual = 3.21411611347e-14, No Iterations 4
ExecutionTime = 0.1 s  ClockTime = 0 s

fieldMinMax minMaxMagU write:
    min(mag(u)) = 0 in cell 0 at location (5 0.01 0)
    max(mag(u)) = 0.000538935513803 in cell 1 at location (5 0.01 0.03)
    min(mag(u.stable)) = 0 in cell 0 at location (5 0.01 0)
    max(mag(u.stable)) = 0.0565215334516 in cell 21 at location (5 0.01 0.43)
    min(mag(u.buoyant)) = 0 in cell 0 at location (5 0.01 0)
    max(mag(u.buoyant)) = 0.0560540639144 in cell 27 at location (5 0.01 0.55)

fieldMinMax minMaxDivU write:
    min(divu) = -0.0444617251681 in cell 0 at location (5 0.01 0.01)
    max(divu) = 0.0549551063281 in cell 44 at location (5 0.01 0.89)

Time = 0.7

Courant Number mean: 1.8057388008e-16 max: 3.52365709527e-16 partition maximums: 2(0.282607667258 0.280270319572)
DICPCG:  Solving for Pi.stable, Initial residual = 0.0457508688091, Final residual = 1.73326909628e-16, No Iterations 2
DICPCG:  Solving for Pi.buoyant, Initial residual = 0.0461193049684, Final residual = 1.82538400267e-16, No Iterations 2
DICPCG:  Solving for P, Initial residual = 0.200062112011, Final residual = 1.60247569457e-14, No Iterations 4
DICPCG:  Solving for P, Initial residual = 0.410786551084, Final residual = 3.35590563396e-14, No Iterations 4
DICPCG:  Solving for Pi.stable, Initial residual = 0.00140967021303, Final residual = 2.08891724261e-17, No Iterations 2
DICPCG:  Solving for Pi.buoyant, Initial residual = 0.00142085509116, Final residual = 1.98457334472e-17, No Iterations 2
DICPCG:  Solving for P, Initial residual = 0.206271490914, Final residual = 1.54918622913e-14, No Iterations 4
DICPCG:  Solving for P, Initial residual = 0.428060776278, Final residual = 3.21949358735e-14, No Iterations 4
ExecutionTime = 0.1 s  ClockTime = 0 s

fieldMinMax minMaxMagU write:
    min(mag(u)) = 0 in cell 0 at location (5 0.01 0)
    max(mag(u)) = 0.000588710040225 in cell 1 at location (5 0.01 0.03)
    min(mag(u.stable)) = 0 in cell 0 at location (5 0.01 0)
    max(mag(u.stable)) = 0.0545149902042 in cell 21 at location (5 0.01 0.43)
    min(mag(u.buoyant)) = 0 in cell 0 at location (5 0.01 0)
    max(mag(u.buoyant)) = 0.0540831470605 in cell 29 at location (5 0.01 0.59)

fieldMinMax minMaxDivU write:
    min(divu) = -0.0486695580115 in cell 0 at location (5 0.01 0)
    max(divu) = 0.056589224168 in cell 44 at location (5 0.01 0.89)

Time = 0.8

Courant Number mean: 1.90169070407e-16 max: 3.65918238367e-16 partition maximums: 2(0.272574951021 0.270415735303)
DICPCG:  Solving for Pi.stable, Initial residual = 0.044124952763, Final residual = 2.85893307396e-16, No Iterations 2
DICPCG:  Solving for Pi.buoyant, Initial residual = 0.0444766648058, Final residual = 2.8208623624e-16, No Iterations 2
DICPCG:  Solving for P, Initial residual = 0.209816347202, Final residual = 1.46895859329e-14, No Iterations 4
DICPCG:  Solving for P, Initial residual = 0.43072894098, Final residual = 3.07705092393e-14, No Iterations 4
DICPCG:  Solving for Pi.stable, Initial residual = 0.00141533357502, Final residual = 2.12670728621e-17, No Iterations 2
DICPCG:  Solving for Pi.buoyant, Initial residual = 0.00142257739404, Final residual = 2.01167042554e-17, No Iterations 2
DICPCG:  Solving for P, Initial residual = 0.21820511901, Final residual = 1.41044628089e-14, No Iterations 4
DICPCG:  Solving for P, Initial residual = 0.443000378055, Final residual = 2.86692455152e-14, No Iterations 4
ExecutionTime = 0.11 s  ClockTime = 0 s

fieldMinMax minMaxMagU write:
    min(mag(u)) = 0 in cell 0 at location (5 0.01 0)
    max(mag(u)) = 0.000636430735084 in cell 1 at location (5 0.01 0.03)
    min(mag(u.stable)) = 0 in cell 0 at location (5 0.01 0)
    max(mag(u.stable)) = 0.0526785393172 in cell 21 at location (5 0.01 0.43)
    min(mag(u.buoyant)) = 0 in cell 0 at location (5 0.01 0)
    max(mag(u.buoyant)) = 0.0522876702206 in cell 29 at location (5 0.01 0.59)

fieldMinMax minMaxDivU write:
    min(divu) = -0.052710379062 in cell 0 at location (5 0.01 0.01)
    max(divu) = 0.0580662588832 in cell 44 at location (5 0.01 0.89)

Time = 0.9

Courant Number mean: 1.99981101241e-16 max: 3.5778671751e-16 partition maximums: 2(0.263392696586 0.261438351103)
DICPCG:  Solving for Pi.stable, Initial residual = 0.0422065697693, Final residual = 2.0772801182e-16, No Iterations 2
DICPCG:  Solving for Pi.buoyant, Initial residual = 0.0425782192832, Final residual = 2.10077558451e-16, No Iterations 2
DICPCG:  Solving for P, Initial residual = 0.226091822943, Final residual = 1.43098450577e-14, No Iterations 4
DICPCG:  Solving for P, Initial residual = 0.481084444496, Final residual = 3.09752863733e-14, No Iterations 4
DICPCG:  Solving for Pi.stable, Initial residual = 0.00144861796462, Final residual = 2.2311774186e-17, No Iterations 2
DICPCG:  Solving for Pi.buoyant, Initial residual = 0.00144248593759, Final residual = 2.1282962507e-17, No Iterations 2
DICPCG:  Solving for P, Initial residual = 0.234234145436, Final residual = 1.36710734566e-14, No Iterations 4
DICPCG:  Solving for P, Initial residual = 0.495893941922, Final residual = 2.89728614679e-14, No Iterations 4
ExecutionTime = 0.12 s  ClockTime = 0 s

fieldMinMax minMaxMagU write:
    min(mag(u)) = 0 in cell 0 at location (5 0.01 0)
    max(mag(u)) = 0.000682177106097 in cell 1 at location (5 0.01 0.03)
    min(mag(u.stable)) = 0 in cell 0 at location (5 0.01 0)
    max(mag(u.stable)) = 0.0509932106685 in cell 21 at location (5 0.01 0.43)
    min(mag(u.buoyant)) = 0 in cell 0 at location (5 0.01 0)
    max(mag(u.buoyant)) = 0.0506393663467 in cell 29 at location (5 0.01 0.59)

fieldMinMax minMaxDivU write:
    min(divu) = -0.0565907997126 in cell 0 at location (5 0.01 0)
    max(divu) = 0.0593998882241 in cell 44 at location (5 0.01 0.89)

Time = 1

Courant Number mean: 2.03071078806e-16 max: 3.79470760408e-16 partition maximums: 2(0.254966053343 0.253196831734)
DICPCG:  Solving for Pi.stable, Initial residual = 0.0405091786251, Final residual = 2.63206251086e-16, No Iterations 2
DICPCG:  Solving for Pi.buoyant, Initial residual = 0.0408314799408, Final residual = 2.60666431124e-16, No Iterations 2
DICPCG:  Solving for P, Initial residual = 0.239288162104, Final residual = 1.22144514634e-14, No Iterations 4
DICPCG:  Solving for P, Initial residual = 0.482996280686, Final residual = 2.52744061698e-14, No Iterations 4
DICPCG:  Solving for Pi.stable, Initial residual = 0.00148786664644, Final residual = 2.34989129758e-17, No Iterations 2
DICPCG:  Solving for Pi.buoyant, Initial residual = 0.0014753769557, Final residual = 2.2518199033e-17, No Iterations 2
DICPCG:  Solving for P, Initial residual = 0.250682348123, Final residual = 1.08717542318e-14, No Iterations 4
DICPCG:  Solving for P, Initial residual = 0.502613137944, Final residual = 2.18356655469e-14, No Iterations 4
ExecutionTime = 0.13 s  ClockTime = 0 s

fieldMinMax minMaxMagU write:
    min(mag(u)) = 0 in cell 0 at location (5 0.01 0)
    max(mag(u)) = 0.000725989930695 in cell 1 at location (5 0.01 0.03)
    min(mag(u.stable)) = 0 in cell 0 at location (5 0.01 0)
    max(mag(u.stable)) = 0.0494428394247 in cell 21 at location (5 0.01 0.43)
    min(mag(u.buoyant)) = 0 in cell 0 at location (5 0.01 0)
    max(mag(u.buoyant)) = 0.0491224641973 in cell 29 at location (5 0.01 0.59)

fieldMinMax minMaxDivU write:
    min(divu) = -0.0603139246503 in cell 0 at location (5 0.01 0.01)
    max(divu) = 0.0606034683181 in cell 44 at location (5 0.01 0.89)

Time = 1.1

Courant Number mean: 2.04588962871e-16 max: 3.68628738924e-16 partition maximums: 2(0.247214197124 0.245612320987)
DICPCG:  Solving for Pi.stable, Initial residual = 0.0386737761488, Final residual = 2.20900740211e-16, No Iterations 2
DICPCG:  Solving for Pi.buoyant, Initial residual = 0.0389386990607, Final residual = 2.2278198631e-16, No Iterations 2
DICPCG:  Solving for P, Initial residual = 0.25769199615, Final residual = 1.06360436371e-14, No Iterations 4
DICPCG:  Solving for P, Initial residual = 0.521206431913, Final residual = 2.23015603483e-14, No Iterations 4
DICPCG:  Solving for Pi.stable, Initial residual = 0.00152719659757, Final residual = 2.46288487542e-17, No Iterations 2
DICPCG:  Solving for Pi.buoyant, Initial residual = 0.0015126859299, Final residual = 2.36648926014e-17, No Iterations 2
DICPCG:  Solving for P, Initial residual = 0.269407562328, Final residual = 9.27859605838e-15, No Iterations 4
DICPCG:  Solving for P, Initial residual = 0.544562408088, Final residual = 1.87863939681e-14, No Iterations 4
ExecutionTime = 0.14 s  ClockTime = 0 s

fieldMinMax minMaxMagU write:
    min(mag(u)) = 0 in cell 0 at location (5 0.01 0)
    max(mag(u)) = 0.000767885149843 in cell 1 at location (5 0.01 0.03)
    min(mag(u.stable)) = 0 in cell 0 at location (5 0.01 0)
    max(mag(u.stable)) = 0.0480132761211 in cell 21 at location (5 0.01 0.43)
    min(mag(u.buoyant)) = 0 in cell 0 at location (5 0.01 0)
    max(mag(u.buoyant)) = 0.0477243089061 in cell 32 at location (5 0.01 0.65)

fieldMinMax minMaxDivU write:
    min(divu) = -0.0638805799735 in cell 0 at location (5 0.01 0.01)
    max(divu) = 0.0616897973091 in cell 44 at location (5 0.01 0.89)

Time = 1.2

Courant Number mean: 1.88542771476e-16 max: 3.57786716926e-16 partition maximums: 2(0.240066380606 0.238621544531)
DICPCG:  Solving for Pi.stable, Initial residual = 0.0368731003263, Final residual = 2.44238127183e-16, No Iterations 2
DICPCG:  Solving for Pi.buoyant, Initial residual = 0.0371231895636, Final residual = 2.42702914272e-16, No Iterations 2
DICPCG:  Solving for P, Initial residual = 0.276450900468, Final residual = 7.92375234954e-15, No Iterations 4
DICPCG:  Solving for P, Initial residual = 0.539004045839, Final residual = 1.61229095147e-14, No Iterations 4
DICPCG:  Solving for Pi.stable, Initial residual = 0.00163332310644, Final residual = 2.56988783218e-17, No Iterations 2
DICPCG:  Solving for Pi.buoyant, Initial residual = 0.00161441006925, Final residual = 2.47735676357e-17, No Iterations 2
DICPCG:  Solving for P, Initial residual = 0.287267687939, Final residual = 6.95925067609e-15, No Iterations 4
DICPCG:  Solving for P, Initial residual = 0.559792988967, Final residual = 1.35801422132e-14, No Iterations 4
ExecutionTime = 0.14 s  ClockTime = 0 s

fieldMinMax minMaxMagU write:
    min(mag(u)) = 0 in cell 0 at location (5 0.01 0)
    max(mag(u)) = 0.000807864656644 in cell 1 at location (5 0.01 0.03)
    min(mag(u.stable)) = 0 in cell 0 at location (5 0.01 0)
    max(mag(u.stable)) = 0.0467215678837 in cell 7 at location (5 0.01 0.15)
    min(mag(u.buoyant)) = 0 in cell 0 at location (5 0.01 0)
    max(mag(u.buoyant)) = 0.046576391722 in cell 33 at location (5 0.01 0.67)

fieldMinMax minMaxDivU write:
    min(divu) = -0.0672902757013 in cell 0 at location (5 0.01 0.01)
    max(divu) = 0.0626709173982 in cell 44 at location (5 0.01 0.89)

Time = 1.3

Courant Number mean: 1.81820718431e-16 max: 3.60497236582e-16 partition maximums: 2(0.233607839419 0.23288195861)
DICPCG:  Solving for Pi.stable, Initial residual = 0.0347770517355, Final residual = 2.18458777304e-16, No Iterations 2
DICPCG:  Solving for Pi.buoyant, Initial residual = 0.0350807531967, Final residual = 2.19813464354e-16, No Iterations 2
DICPCG:  Solving for P, Initial residual = 0.293509825937, Final residual = 6.6846250174e-15, No Iterations 4
DICPCG:  Solving for P, Initial residual = 0.567685511485, Final residual = 1.34269987883e-14, No Iterations 4
DICPCG:  Solving for Pi.stable, Initial residual = 0.00172921090571, Final residual = 2.71786388392e-17, No Iterations 2
DICPCG:  Solving for Pi.buoyant, Initial residual = 0.00171235167865, Final residual = 2.60746436223e-17, No Iterations 2
DICPCG:  Solving for P, Initial residual = 0.303254497593, Final residual = 6.15921243292e-15, No Iterations 4
DICPCG:  Solving for P, Initial residual = 0.58653487875, Final residual = 1.19233747554e-14, No Iterations 4
ExecutionTime = 0.15 s  ClockTime = 0 s

fieldMinMax minMaxMagU write:
    min(mag(u)) = 0 in cell 0 at location (5 0.01 0)
    max(mag(u)) = 0.000845924838101 in cell 1 at location (5 0.01 0.03)
    min(mag(u.stable)) = 0 in cell 0 at location (5 0.01 0)
    max(mag(u.stable)) = 0.0469438062469 in cell 6 at location (5 0.01 0.13)
    min(mag(u.buoyant)) = 0 in cell 0 at location (5 0.01 0)
    max(mag(u.buoyant)) = 0.0465138031215 in cell 42 at location (5 0.01 0.85)

fieldMinMax minMaxDivU write:
    min(divu) = -0.0705419671171 in cell 0 at location (5 0.01 0)
    max(divu) = 0.0635580350697 in cell 44 at location (5 0.01 0.89)

Time = 1.4

Courant Number mean: 1.95806926557e-16 max: 3.8489178705e-16 partition maximums: 2(0.234719031235 0.232569015607)
DICPCG:  Solving for Pi.stable, Initial residual = 0.0325828710861, Final residual = 2.20339411487e-16, No Iterations 2
DICPCG:  Solving for Pi.buoyant, Initial residual = 0.0328632213085, Final residual = 2.22138796081e-16, No Iterations 2
DICPCG:  Solving for P, Initial residual = 0.309181408075, Final residual = 5.94840753159e-15, No Iterations 4
DICPCG:  Solving for P, Initial residual = 0.581999600667, Final residual = 1.1321931916e-14, No Iterations 4
DICPCG:  Solving for Pi.stable, Initial residual = 0.0018080187532, Final residual = 2.79650502349e-17, No Iterations 2
DICPCG:  Solving for Pi.buoyant, Initial residual = 0.00179627392188, Final residual = 2.69411782692e-17, No Iterations 2
DICPCG:  Solving for P, Initial residual = 0.31887808503, Final residual = 6.18343593153e-15, No Iterations 4
DICPCG:  Solving for P, Initial residual = 0.601858898227, Final residual = 1.16707435828e-14, No Iterations 4
ExecutionTime = 0.16 s  ClockTime = 0 s

fieldMinMax minMaxMagU write:
    min(mag(u)) = 0 in cell 0 at location (5 0.01 0)
    max(mag(u)) = 0.000882063184985 in cell 1 at location (5 0.01 0.03)
    min(mag(u.stable)) = 0 in cell 0 at location (5 0.01 0)
    max(mag(u.stable)) = 0.0472764102716 in cell 5 at location (5 0.01 0.11)
    min(mag(u.buoyant)) = 0 in cell 0 at location (5 0.01 0)
    max(mag(u.buoyant)) = 0.0468691416018 in cell 44 at location (5 0.01 0.89)

fieldMinMax minMaxDivU write:
    min(divu) = -0.0736346627367 in cell 0 at location (5 0.01 0)
    max(divu) = 0.0643614992854 in cell 44 at location (5 0.01 0.89)

Time = 1.5

Courant Number mean: 2.03721602593e-16 max: 4.25549371436e-16 partition maximums: 2(0.236382051358 0.234345708009)
DICPCG:  Solving for Pi.stable, Initial residual = 0.0301878453903, Final residual = 2.00336613533e-16, No Iterations 2
DICPCG:  Solving for Pi.buoyant, Initial residual = 0.0304903172649, Final residual = 2.03292207568e-16, No Iterations 2
DICPCG:  Solving for P, Initial residual = 0.325009179688, Final residual = 6.27678646811e-15, No Iterations 4
DICPCG:  Solving for P, Initial residual = 0.60321099977, Final residual = 1.14941197963e-14, No Iterations 4
DICPCG:  Solving for Pi.stable, Initial residual = 0.00188158586558, Final residual = 2.83065626014e-17, No Iterations 2
DICPCG:  Solving for Pi.buoyant, Initial residual = 0.00186306167302, Final residual = 2.72952203409e-17, No Iterations 2
DICPCG:  Solving for P, Initial residual = 0.335100683757, Final residual = 7.02968122878e-15, No Iterations 4
DICPCG:  Solving for P, Initial residual = 0.626280592614, Final residual = 1.31320325571e-14, No Iterations 4
ExecutionTime = 0.17 s  ClockTime = 0 s

fieldMinMax minMaxMagU write:
    min(mag(u)) = 0 in cell 0 at location (5 0.01 0)
    max(mag(u)) = 0.000916282589759 in cell 1 at location (5 0.01 0.03)
    min(mag(u.stable)) = 0 in cell 0 at location (5 0.01 0)
    max(mag(u.stable)) = 0.047804656357 in cell 5 at location (5 0.01 0.11)
    min(mag(u.buoyant)) = 0 in cell 0 at location (5 0.01 0)
    max(mag(u.buoyant)) = 0.0474091753565 in cell 44 at location (5 0.01 0.89)

fieldMinMax minMaxDivU write:
    min(divu) = -0.0765678234987 in cell 0 at location (5 0.01 0.01)
    max(divu) = 0.0651518551364 in cell 3 at location (5 0.01 0.07)

Time = 1.6

Courant Number mean: 1.9602376719e-16 max: 4.25549374218e-16 partition maximums: 2(0.239023281785 0.237045876783)
DICPCG:  Solving for Pi.stable, Initial residual = 0.0278811795441, Final residual = 1.93334736286e-16, No Iterations 2
DICPCG:  Solving for Pi.buoyant, Initial residual = 0.0281140672434, Final residual = 1.95362155083e-16, No Iterations 2
DICPCG:  Solving for P, Initial residual = 0.342555486721, Final residual = 7.34534080005e-15, No Iterations 4
DICPCG:  Solving for P, Initial residual = 0.623878610691, Final residual = 1.30407147949e-14, No Iterations 4
DICPCG:  Solving for Pi.stable, Initial residual = 0.00195376081567, Final residual = 2.82798338747e-17, No Iterations 2
DICPCG:  Solving for Pi.buoyant, Initial residual = 0.00192804567642, Final residual = 2.74189287872e-17, No Iterations 2
DICPCG:  Solving for P, Initial residual = 0.352091290833, Final residual = 8.22921013386e-15, No Iterations 4
DICPCG:  Solving for P, Initial residual = 0.646748850155, Final residual = 1.51078612528e-14, No Iterations 4
ExecutionTime = 0.17 s  ClockTime = 0 s

fieldMinMax minMaxMagU write:
    min(mag(u)) = 0 in cell 0 at location (5 0.01 0)
    max(mag(u)) = 0.000948594128166 in cell 1 at location (5 0.01 0.03)
    min(mag(u.stable)) = 0 in cell 0 at location (5 0.01 0)
    max(mag(u.stable)) = 0.0482845310131 in cell 5 at location (5 0.01 0.11)
    min(mag(u.buoyant)) = 0 in cell 0 at location (5 0.01 0)
    max(mag(u.buoyant)) = 0.0479007712456 in cell 44 at location (5 0.01 0.89)

fieldMinMax minMaxDivU write:
    min(divu) = -0.0793416249935 in cell 0 at location (5 0.01 0.01)
    max(divu) = 0.0664997015755 in cell 3 at location (5 0.01 0.07)

Time = 1.7

Courant Number mean: 2.18575172088e-16 max: 4.82469991129e-16 partition maximums: 2(0.241422655065 0.239503856228)
DICPCG:  Solving for Pi.stable, Initial residual = 0.0256429647268, Final residual = 1.77451519056e-16, No Iterations 2
DICPCG:  Solving for Pi.buoyant, Initial residual = 0.025822387283, Final residual = 1.79339003576e-16, No Iterations 2
DICPCG:  Solving for P, Initial residual = 0.360877387751, Final residual = 8.49161764009e-15, No Iterations 4
DICPCG:  Solving for P, Initial residual = 0.647593558753, Final residual = 1.48324021087e-14, No Iterations 4
DICPCG:  Solving for Pi.stable, Initial residual = 0.00201816487696, Final residual = 2.78894473823e-17, No Iterations 2
DICPCG:  Solving for Pi.buoyant, Initial residual = 0.00198653854063, Final residual = 2.724063604e-17, No Iterations 2
DICPCG:  Solving for P, Initial residual = 0.368570453504, Final residual = 9.38821746785e-15, No Iterations 4
DICPCG:  Solving for P, Initial residual = 0.666839838165, Final residual = 1.69747128455e-14, No Iterations 4
ExecutionTime = 0.18 s  ClockTime = 0 s

fieldMinMax minMaxMagU write:
    min(mag(u)) = 0 in cell 0 at location (5 0.01 0)
    max(mag(u)) = 0.000979018613957 in cell 1 at location (5 0.01 0.03)
    min(mag(u.stable)) = 0 in cell 0 at location (5 0.01 0)
    max(mag(u.stable)) = 0.0487218764713 in cell 5 at location (5 0.01 0.11)
    min(mag(u.buoyant)) = 0 in cell 0 at location (5 0.01 0)
    max(mag(u.buoyant)) = 0.0483496619091 in cell 44 at location (5 0.01 0.89)

fieldMinMax minMaxDivU write:
    min(divu) = -0.0819571099651 in cell 0 at location (5 0.01 0.01)
    max(divu) = 0.0677412503743 in cell 3 at location (5 0.01 0.07)

Time = 1.8

Courant Number mean: 2.24104603277e-16 max: 4.68917467003e-16 partition maximums: 2(0.243609382357 0.241748309546)
DICPCG:  Solving for Pi.stable, Initial residual = 0.0236058434853, Final residual = 1.67294902251e-16, No Iterations 2
DICPCG:  Solving for Pi.buoyant, Initial residual = 0.0237541415674, Final residual = 1.69136667814e-16, No Iterations 2
DICPCG:  Solving for P, Initial residual = 0.376994739268, Final residual = 9.7307660712e-15, No Iterations 4
DICPCG:  Solving for P, Initial residual = 0.662180976284, Final residual = 1.65778048117e-14, No Iterations 4
DICPCG:  Solving for Pi.stable, Initial residual = 0.00211095687083, Final residual = 2.73343492227e-17, No Iterations 2
DICPCG:  Solving for Pi.buoyant, Initial residual = 0.00206322974764, Final residual = 2.67718240658e-17, No Iterations 2
DICPCG:  Solving for P, Initial residual = 0.38202942741, Final residual = 1.0652635102e-14, No Iterations 4
DICPCG:  Solving for P, Initial residual = 0.675246046078, Final residual = 1.88166563393e-14, No Iterations 4
ExecutionTime = 0.19 s  ClockTime = 0 s

fieldMinMax minMaxMagU write:
    min(mag(u)) = 0 in cell 0 at location (5 0.01 0)
    max(mag(u)) = 0.0010075872237 in cell 1 at location (5 0.01 0.03)
    min(mag(u.stable)) = 0 in cell 0 at location (5 0.01 0)
    max(mag(u.stable)) = 0.049121899979 in cell 5 at location (5 0.01 0.11)
    min(mag(u.buoyant)) = 0 in cell 0 at location (5 0.01 0)
    max(mag(u.buoyant)) = 0.0488067555945 in cell 45 at location (5 0.01 0.91)

fieldMinMax minMaxDivU write:
    min(divu) = -0.0844162555615 in cell 0 at location (5 0.01 0)
    max(divu) = 0.0688842389777 in cell 3 at location (5 0.01 0.07)

Time = 1.9

Courant Number mean: 2.35055045121e-16 max: 4.98733030218e-16 partition maximums: 2(0.245609499895 0.244033777972)
DICPCG:  Solving for Pi.stable, Initial residual = 0.0217103042693, Final residual = 1.5404651986e-16, No Iterations 2
DICPCG:  Solving for Pi.buoyant, Initial residual = 0.0218426588475, Final residual = 1.55770356166e-16, No Iterations 2
DICPCG:  Solving for P, Initial residual = 0.389947543683, Final residual = 1.09510331919e-14, No Iterations 4
DICPCG:  Solving for P, Initial residual = 0.670475065049, Final residual = 1.82578631845e-14, No Iterations 4
DICPCG:  Solving for Pi.stable, Initial residual = 0.00220112947055, Final residual = 2.76182301699e-17, No Iterations 2
DICPCG:  Solving for Pi.buoyant, Initial residual = 0.00214975190772, Final residual = 2.69204142247e-17, No Iterations 2
DICPCG:  Solving for P, Initial residual = 0.394222901945, Final residual = 1.18291149887e-14, No Iterations 4
DICPCG:  Solving for P, Initial residual = 0.683596818438, Final residual = 2.04999433694e-14, No Iterations 4
ExecutionTime = 0.2 s  ClockTime = 0 s

fieldMinMax minMaxMagU write:
    min(mag(u)) = 0 in cell 0 at location (5 0.01 0)
    max(mag(u)) = 0.00103434141127 in cell 1 at location (5 0.01 0.03)
    min(mag(u.stable)) = 0 in cell 0 at location (5 0.01 0)
    max(mag(u.stable)) = 0.0496161356525 in cell 4 at location (5 0.01 0.09)
    min(mag(u.buoyant)) = 0 in cell 0 at location (5 0.01 0)
    max(mag(u.buoyant)) = 0.0493612853333 in cell 45 at location (5 0.01 0.91)

fieldMinMax minMaxDivU write:
    min(divu) = -0.0867219760752 in cell 0 at location (5 0.01 0)
    max(divu) = 0.0699360988091 in cell 3 at location (5 0.01 0.07)

Time = 2

Courant Number mean: 2.25730906375e-16 max: 4.71627978776e-16 partition maximums: 2(0.248080678262 0.246806426666)
DICPCG:  Solving for Pi.stable, Initial residual = 0.0199561576563, Final residual = 1.43608437986e-16, No Iterations 2
DICPCG:  Solving for Pi.buoyant, Initial residual = 0.0200762521141, Final residual = 1.45258524937e-16, No Iterations 2
DICPCG:  Solving for P, Initial residual = 0.401797079232, Final residual = 1.21457381225e-14, No Iterations 4
DICPCG:  Solving for P, Initial residual = 0.67693351542, Final residual = 1.9884720123e-14, No Iterations 4
DICPCG:  Solving for Pi.stable, Initial residual = 0.00228729023868, Final residual = 2.81463820554e-17, No Iterations 2
DICPCG:  Solving for Pi.buoyant, Initial residual = 0.00223105051902, Final residual = 2.75127933463e-17, No Iterations 2
DICPCG:  Solving for P, Initial residual = 0.40522630026, Final residual = 1.2943432871e-14, No Iterations 4
DICPCG:  Solving for P, Initial residual = 0.689555929582, Final residual = 2.20141362199e-14, No Iterations 4
ExecutionTime = 0.21 s  ClockTime = 0 s

fieldMinMax minMaxMagU write:
    min(mag(u)) = 0 in cell 0 at location (5 0.01 0)
    max(mag(u)) = 0.00105933232453 in cell 1 at location (5 0.01 0.03)
    min(mag(u.stable)) = 0 in cell 0 at location (5 0.01 0)
    max(mag(u.stable)) = 0.0501155173232 in cell 4 at location (5 0.01 0.09)
    min(mag(u.buoyant)) = 0 in cell 0 at location (5 0.01 0)
    max(mag(u.buoyant)) = 0.0498712479376 in cell 45 at location (5 0.01 0.91)

fieldMinMax minMaxDivU write:
    min(divu) = -0.0888780745696 in cell 0 at location (5 0.01 0)
    max(divu) = 0.0709037818696 in cell 3 at location (5 0.01 0.07)

Time = 2.1

Courant Number mean: 2.34512943963e-16 max: 4.98733035398e-16 partition maximums: 2(0.250577586616 0.249356239688)
DICPCG:  Solving for Pi.stable, Initial residual = 0.0183280852314, Final residual = 1.32275552805e-16, No Iterations 2
DICPCG:  Solving for Pi.buoyant, Initial residual = 0.0184406213971, Final residual = 1.33781503583e-16, No Iterations 2
DICPCG:  Solving for P, Initial residual = 0.412439983419, Final residual = 1.31744619251e-14, No Iterations 4
DICPCG:  Solving for P, Initial residual = 0.682797904376, Final residual = 2.12590439112e-14, No Iterations 4
DICPCG:  Solving for Pi.stable, Initial residual = 0.00236763698478, Final residual = 2.8984505e-17, No Iterations 2
DICPCG:  Solving for Pi.buoyant, Initial residual = 0.00230827080875, Final residual = 2.84085025583e-17, No Iterations 2
DICPCG:  Solving for P, Initial residual = 0.415181483823, Final residual = 1.38990344561e-14, No Iterations 4
DICPCG:  Solving for P, Initial residual = 0.695269839209, Final residual = 2.32648152076e-14, No Iterations 4
ExecutionTime = 0.22 s  ClockTime = 0 s

fieldMinMax minMaxMagU write:
    min(mag(u)) = 0 in cell 0 at location (5 0.01 0)
    max(mag(u)) = 0.00108262023072 in cell 1 at location (5 0.01 0.03)
    min(mag(u.stable)) = 0 in cell 0 at location (5 0.01 0)
    max(mag(u.stable)) = 0.0505738077876 in cell 4 at location (5 0.01 0.09)
    min(mag(u.buoyant)) = 0 in cell 0 at location (5 0.01 0)
    max(mag(u.buoyant)) = 0.0503409458471 in cell 45 at location (5 0.01 0.91)

fieldMinMax minMaxDivU write:
    min(divu) = -0.0908892063104 in cell 0 at location (5 0.01 0)
    max(divu) = 0.0717935464069 in cell 3 at location (5 0.01 0.07)

Time = 2.2

Courant Number mean: 2.37223449363e-16 max: 4.98733023315e-16 partition maximums: 2(0.252869038938 0.251704729235)
DICPCG:  Solving for Pi.stable, Initial residual = 0.0168225380975, Final residual = 1.23200254267e-16, No Iterations 2
DICPCG:  Solving for Pi.buoyant, Initial residual = 0.016927059833, Final residual = 1.24747164771e-16, No Iterations 2
DICPCG:  Solving for P, Initial residual = 0.422049579484, Final residual = 1.41041530585e-14, No Iterations 4
DICPCG:  Solving for P, Initial residual = 0.687323595001, Final residual = 2.24359457123e-14, No Iterations 4
DICPCG:  Solving for Pi.stable, Initial residual = 0.00244331468144, Final residual = 2.98141740978e-17, No Iterations 2
DICPCG:  Solving for Pi.buoyant, Initial residual = 0.00238010945675, Final residual = 2.92237030364e-17, No Iterations 2
DICPCG:  Solving for P, Initial residual = 0.424142846481, Final residual = 1.47768997012e-14, No Iterations 4
DICPCG:  Solving for P, Initial residual = 0.699631212451, Final residual = 2.43648861176e-14, No Iterations 4
ExecutionTime = 0.23 s  ClockTime = 0 s

fieldMinMax minMaxMagU write:
    min(mag(u)) = 0 in cell 0 at location (5 0.01 0)
    max(mag(u)) = 0.00110427241306 in cell 1 at location (5 0.01 0.03)
    min(mag(u.stable)) = 0 in cell 0 at location (5 0.01 0)
    max(mag(u.stable)) = 0.0509944863376 in cell 4 at location (5 0.01 0.09)
    min(mag(u.buoyant)) = 0 in cell 0 at location (5 0.01 0)
    max(mag(u.buoyant)) = 0.0507741399485 in cell 45 at location (5 0.01 0.91)

fieldMinMax minMaxDivU write:
    min(divu) = -0.0927607365579 in cell 0 at location (5 0.01 0)
    max(divu) = 0.0726110627395 in cell 3 at location (5 0.01 0.07)

Time = 2.3

Courant Number mean: 2.59666434449e-16 max: 5.42101106438e-16 partition maximums: 2(0.254972431688 0.253870699742)
DICPCG:  Solving for Pi.stable, Initial residual = 0.0154259756714, Final residual = 1.16022162967e-16, No Iterations 2
DICPCG:  Solving for Pi.buoyant, Initial residual = 0.015508060333, Final residual = 1.17166281665e-16, No Iterations 2
DICPCG:  Solving for P, Initial residual = 0.430565567242, Final residual = 1.49267368948e-14, No Iterations 4
DICPCG:  Solving for P, Initial residual = 0.691021380804, Final residual = 2.34283775903e-14, No Iterations 4
DICPCG:  Solving for Pi.stable, Initial residual = 0.0025126484063, Final residual = 3.0598246864e-17, No Iterations 2
DICPCG:  Solving for Pi.buoyant, Initial residual = 0.00244101972446, Final residual = 2.98880722092e-17, No Iterations 2
DICPCG:  Solving for P, Initial residual = 0.432010825924, Final residual = 1.55380577781e-14, No Iterations 4
DICPCG:  Solving for P, Initial residual = 0.703059764347, Final residual = 2.52777943059e-14, No Iterations 4
ExecutionTime = 0.23 s  ClockTime = 0 s

fieldMinMax minMaxMagU write:
    min(mag(u)) = 0 in cell 0 at location (5 0.01 0)
    max(mag(u)) = 0.00112435915302 in cell 1 at location (5 0.01 0.03)
    min(mag(u.stable)) = 0 in cell 0 at location (5 0.01 0)
    max(mag(u.stable)) = 0.0513807165996 in cell 4 at location (5 0.01 0.09)
    min(mag(u.buoyant)) = 0 in cell 0 at location (5 0.01 0)
    max(mag(u.buoyant)) = 0.0511741016913 in cell 45 at location (5 0.01 0.91)

fieldMinMax minMaxDivU write:
    min(divu) = -0.0944983731963 in cell 0 at location (5 0.01 0)
    max(divu) = 0.0733615680345 in cell 3 at location (5 0.01 0.07)

Time = 2.4

Courant Number mean: 2.59774854824e-16 max: 5.52943129595e-16 partition maximums: 2(0.256903582998 0.255870508457)
DICPCG:  Solving for Pi.stable, Initial residual = 0.0141090369073, Final residual = 1.08961681165e-16, No Iterations 2
DICPCG:  Solving for Pi.buoyant, Initial residual = 0.0141686105088, Final residual = 1.09815761563e-16, No Iterations 2
DICPCG:  Solving for P, Initial residual = 0.436897328969, Final residual = 1.5609249779e-14, No Iterations 4
DICPCG:  Solving for P, Initial residual = 0.690597075636, Final residual = 2.41747939594e-14, No Iterations 4
DICPCG:  Solving for Pi.stable, Initial residual = 0.00257561606601, Final residual = 3.12826684714e-17, No Iterations 2
DICPCG:  Solving for Pi.buoyant, Initial residual = 0.00249715420906, Final residual = 3.05141359033e-17, No Iterations 2
DICPCG:  Solving for P, Initial residual = 0.437793696684, Final residual = 1.61656161539e-14, No Iterations 4
DICPCG:  Solving for P, Initial residual = 0.702447296278, Final residual = 2.59295330806e-14, No Iterations 4
ExecutionTime = 0.24 s  ClockTime = 1 s

fieldMinMax minMaxMagU write:
    min(mag(u)) = 0 in cell 0 at location (5 0.01 0)
    max(mag(u)) = 0.00114295170975 in cell 1 at location (5 0.01 0.03)
    min(mag(u.stable)) = 0 in cell 0 at location (5 0.01 0)
    max(mag(u.stable)) = 0.0517353906258 in cell 4 at location (5 0.01 0.09)
    min(mag(u.buoyant)) = 0 in cell 0 at location (5 0.01 0)
    max(mag(u.buoyant)) = 0.0515436311218 in cell 45 at location (5 0.01 0.91)

fieldMinMax minMaxDivU write:
    min(divu) = -0.0961079587379 in cell 0 at location (5 0.01 0)
    max(divu) = 0.0740499293574 in cell 3 at location (5 0.01 0.07)

Time = 2.5

Courant Number mean: 2.59015913349e-16 max: 5.42101106843e-16 partition maximums: 2(0.258676953129 0.257718155609)
DICPCG:  Solving for Pi.stable, Initial residual = 0.0128771190944, Final residual = 1.01777774254e-16, No Iterations 2
DICPCG:  Solving for Pi.buoyant, Initial residual = 0.0129250004185, Final residual = 1.02487171257e-16, No Iterations 2
DICPCG:  Solving for P, Initial residual = 0.442284036786, Final residual = 1.61879100129e-14, No Iterations 4
DICPCG:  Solving for P, Initial residual = 0.689577936368, Final residual = 2.47646592331e-14, No Iterations 4
DICPCG:  Solving for Pi.stable, Initial residual = 0.00263605880659, Final residual = 3.18881045963e-17, No Iterations 2
DICPCG:  Solving for Pi.buoyant, Initial residual = 0.00255186547896, Final residual = 3.10532403272e-17, No Iterations 2
DICPCG:  Solving for P, Initial residual = 0.442723746537, Final residual = 1.6706807143e-14, No Iterations 4
DICPCG:  Solving for P, Initial residual = 0.701361593874, Final residual = 2.64590619001e-14, No Iterations 4
ExecutionTime = 0.25 s  ClockTime = 1 s

fieldMinMax minMaxMagU write:
    min(mag(u)) = 0 in cell 0 at location (5 0.01 0)
    max(mag(u)) = 0.0011601217157 in cell 1 at location (5 0.01 0.03)
    min(mag(u.stable)) = 0 in cell 0 at location (5 0.01 0)
    max(mag(u.stable)) = 0.0520611557614 in cell 4 at location (5 0.01 0.09)
    min(mag(u.buoyant)) = 0 in cell 0 at location (5 0.01 0)
    max(mag(u.buoyant)) = 0.0518850486279 in cell 45 at location (5 0.01 0.91)

fieldMinMax minMaxDivU write:
    min(divu) = -0.0975954140722 in cell 0 at location (5 0.01 0)
    max(divu) = 0.0746806857826 in cell 3 at location (5 0.01 0.07)

Time = 2.6

Courant Number mean: 2.68231631969e-16 max: 5.63785150007e-16 partition maximums: 2(0.260305778807 0.259425243139)
DICPCG:  Solving for Pi.stable, Initial residual = 0.0117254387673, Final residual = 9.80276948343e-17, No Iterations 2
DICPCG:  Solving for Pi.buoyant, Initial residual = 0.0117706156236, Final residual = 9.7879328058e-17, No Iterations 2
DICPCG:  Solving for P, Initial residual = 0.445862020467, Final residual = 1.66561651213e-14, No Iterations 4
DICPCG:  Solving for P, Initial residual = 0.685614072594, Final residual = 2.51564581817e-14, No Iterations 4
DICPCG:  Solving for Pi.stable, Initial residual = 0.00268588429676, Final residual = 3.241569671e-17, No Iterations 2
DICPCG:  Solving for Pi.buoyant, Initial residual = 0.00259916434397, Final residual = 3.1489449503e-17, No Iterations 2
DICPCG:  Solving for P, Initial residual = 0.446130250685, Final residual = 1.71454519446e-14, No Iterations 4
DICPCG:  Solving for P, Initial residual = 0.697848997683, Final residual = 2.68121675956e-14, No Iterations 4
ExecutionTime = 0.26 s  ClockTime = 1 s

fieldMinMax minMaxMagU write:
    min(mag(u)) = 0 in cell 0 at location (5 0.01 0)
    max(mag(u)) = 0.00117594063092 in cell 1 at location (5 0.01 0.03)
    min(mag(u.stable)) = 0 in cell 0 at location (5 0.01 0)
    max(mag(u.stable)) = 0.0523604269541 in cell 4 at location (5 0.01 0.09)
    min(mag(u.buoyant)) = 0 in cell 0 at location (5 0.01 0)
    max(mag(u.buoyant)) = 0.0522003333824 in cell 45 at location (5 0.01 0.91)

fieldMinMax minMaxDivU write:
    min(divu) = -0.0989666836067 in cell 0 at location (5 0.01 0.01)
    max(divu) = 0.0752580214274 in cell 3 at location (5 0.01 0.07)

Time = 2.7

Courant Number mean: 2.77013669711e-16 max: 5.63785149773e-16 partition maximums: 2(0.26180213477 0.261001666912)
DICPCG:  Solving for Pi.stable, Initial residual = 0.0106432554543, Final residual = 9.47524031258e-17, No Iterations 2
DICPCG:  Solving for Pi.buoyant, Initial residual = 0.0106966064391, Final residual = 9.45588689297e-17, No Iterations 2
DICPCG:  Solving for P, Initial residual = 0.44866377805, Final residual = 1.70464706505e-14, No Iterations 4
DICPCG:  Solving for P, Initial residual = 0.681314073915, Final residual = 2.54524484672e-14, No Iterations 4
DICPCG:  Solving for Pi.stable, Initial residual = 0.00273249551224, Final residual = 3.28794570979e-17, No Iterations 2
DICPCG:  Solving for Pi.buoyant, Initial residual = 0.00263865454946, Final residual = 3.1877679786e-17, No Iterations 2
DICPCG:  Solving for P, Initial residual = 0.448638554742, Final residual = 1.75066909386e-14, No Iterations 4
DICPCG:  Solving for P, Initial residual = 0.693571855592, Final residual = 2.70578500432e-14, No Iterations 4
ExecutionTime = 0.26 s  ClockTime = 1 s

fieldMinMax minMaxMagU write:
    min(mag(u)) = 0 in cell 0 at location (5 0.01 0)
    max(mag(u)) = 0.00119047953556 in cell 1 at location (5 0.01 0.03)
    min(mag(u.stable)) = 0 in cell 0 at location (5 0.01 0)
    max(mag(u.stable)) = 0.0526355005061 in cell 4 at location (5 0.01 0.09)
    min(mag(u.buoyant)) = 0 in cell 0 at location (5 0.01 0)
    max(mag(u.buoyant)) = 0.0524912593324 in cell 45 at location (5 0.01 0.91)

fieldMinMax minMaxDivU write:
    min(divu) = -0.100227726921 in cell 0 at location (5 0.01 0)
    max(divu) = 0.0757859003229 in cell 3 at location (5 0.01 0.07)

Time = 2.8

Courant Number mean: 2.75929467793e-16 max: 5.96311214714e-16 partition maximums: 2(0.26317750253 0.262456296662)
DICPCG:  Solving for Pi.stable, Initial residual = 0.00963307947721, Final residual = 9.13022141942e-17, No Iterations 2
DICPCG:  Solving for Pi.buoyant, Initial residual = 0.0096992231074, Final residual = 9.10036431764e-17, No Iterations 2
DICPCG:  Solving for P, Initial residual = 0.450876663296, Final residual = 1.7377572431e-14, No Iterations 4
DICPCG:  Solving for P, Initial residual = 0.676912815804, Final residual = 2.56767676775e-14, No Iterations 4
DICPCG:  Solving for Pi.stable, Initial residual = 0.00277560860973, Final residual = 3.3285679236e-17, No Iterations 2
DICPCG:  Solving for Pi.buoyant, Initial residual = 0.00267589024582, Final residual = 3.21966143867e-17, No Iterations 2
DICPCG:  Solving for P, Initial residual = 0.450585686799, Final residual = 1.78140296655e-14, No Iterations 4
DICPCG:  Solving for P, Initial residual = 0.689161975433, Final residual = 2.72400729831e-14, No Iterations 4
ExecutionTime = 0.28 s  ClockTime = 1 s

fieldMinMax minMaxMagU write:
    min(mag(u)) = 0 in cell 0 at location (5 0.01 0)
    max(mag(u)) = 0.00120380743615 in cell 1 at location (5 0.01 0.03)
    min(mag(u.stable)) = 0 in cell 0 at location (5 0.01 0)
    max(mag(u.stable)) = 0.0528884252742 in cell 4 at location (5 0.01 0.09)
    min(mag(u.buoyant)) = 0 in cell 0 at location (5 0.01 0)
    max(mag(u.buoyant)) = 0.0527595540316 in cell 45 at location (5 0.01 0.91)

fieldMinMax minMaxDivU write:
    min(divu) = -0.10138435632 in cell 0 at location (5 0.01 0.01)
    max(divu) = 0.0762681418435 in cell 3 at location (5 0.01 0.07)

Time = 2.9

Courant Number mean: 2.74953685912e-16 max: 5.74627170875e-16 partition maximums: 2(0.264442126371 0.263797770158)
DICPCG:  Solving for Pi.stable, Initial residual = 0.00869196448173, Final residual = 8.76521679861e-17, No Iterations 2
DICPCG:  Solving for Pi.buoyant, Initial residual = 0.00877358015155, Final residual = 8.72854891569e-17, No Iterations 2
DICPCG:  Solving for P, Initial residual = 0.45254385567, Final residual = 1.76564429252e-14, No Iterations 4
DICPCG:  Solving for P, Initial residual = 0.67245473312, Final residual = 2.5850381334e-14, No Iterations 4
DICPCG:  Solving for Pi.stable, Initial residual = 0.00281024037255, Final residual = 3.37106818515e-17, No Iterations 2
DICPCG:  Solving for Pi.buoyant, Initial residual = 0.00271282783901, Final residual = 3.25890612099e-17, No Iterations 2
DICPCG:  Solving for P, Initial residual = 0.452016864913, Final residual = 1.80725225805e-14, No Iterations 4
DICPCG:  Solving for P, Initial residual = 0.684675284735, Final residual = 2.73688754579e-14, No Iterations 4
ExecutionTime = 0.29 s  ClockTime = 1 s

fieldMinMax minMaxMagU write:
    min(mag(u)) = 0 in cell 0 at location (5 0.01 0)
    max(mag(u)) = 0.00121599176608 in cell 1 at location (5 0.01 0.03)
    min(mag(u.stable)) = 0 in cell 0 at location (5 0.01 0)
    max(mag(u.stable)) = 0.0531209662636 in cell 4 at location (5 0.01 0.09)
    min(mag(u.buoyant)) = 0 in cell 0 at location (5 0.01 0)
    max(mag(u.buoyant)) = 0.0530068427451 in cell 45 at location (5 0.01 0.91)

fieldMinMax minMaxDivU write:
    min(divu) = -0.102442226052 in cell 0 at location (5 0.01 0)
    max(divu) = 0.0767082351727 in cell 3 at location (5 0.01 0.07)

Time = 3

Courant Number mean: 2.94903005949e-16 max: 6.17995257318e-16 partition maximums: 2(0.265604831318 0.265034213725)
DICPCG:  Solving for Pi.stable, Initial residual = 0.00807038342917, Final residual = 8.38948316641e-17, No Iterations 2
DICPCG:  Solving for Pi.buoyant, Initial residual = 0.00803585247445, Final residual = 8.37997990667e-17, No Iterations 2
DICPCG:  Solving for P, Initial residual = 0.453714773902, Final residual = 1.78982030857e-14, No Iterations 4
DICPCG:  Solving for P, Initial residual = 0.667912824622, Final residual = 2.59781827992e-14, No Iterations 4
DICPCG:  Solving for Pi.stable, Initial residual = 0.00283790467813, Final residual = 3.40523614504e-17, No Iterations 2
DICPCG:  Solving for Pi.buoyant, Initial residual = 0.00274381144572, Final residual = 3.29348707449e-17, No Iterations 2
DICPCG:  Solving for P, Initial residual = 0.452979799813, Final residual = 1.82899852196e-14, No Iterations 4
DICPCG:  Solving for P, Initial residual = 0.680087786872, Final residual = 2.7454478748e-14, No Iterations 4
ExecutionTime = 0.3 s  ClockTime = 1 s

fieldMinMax minMaxMagU write:
    min(mag(u)) = 0 in cell 0 at location (5 0.01 0)
    max(mag(u)) = 0.00122710068955 in cell 1 at location (5 0.01 0.03)
    min(mag(u.stable)) = 0 in cell 0 at location (5 0.01 0)
    max(mag(u.stable)) = 0.053334699975 in cell 4 at location (5 0.01 0.09)
    min(mag(u.buoyant)) = 0 in cell 0 at location (5 0.01 0)
    max(mag(u.buoyant)) = 0.0532345693268 in cell 45 at location (5 0.01 0.91)

fieldMinMax minMaxDivU write:
    min(divu) = -0.103407095338 in cell 0 at location (5 0.01 0)
    max(divu) = 0.0771093563281 in cell 3 at location (5 0.01 0.07)

Time = 3.1

Courant Number mean: 2.73218962547e-16 max: 5.74627170575e-16 partition maximums: 2(0.266673499875 0.266172846634)
DICPCG:  Solving for Pi.stable, Initial residual = 0.0075552943422, Final residual = 8.05693143484e-17, No Iterations 2
DICPCG:  Solving for Pi.buoyant, Initial residual = 0.00753737352926, Final residual = 8.07135061682e-17, No Iterations 2
DICPCG:  Solving for P, Initial residual = 0.454426562039, Final residual = 1.80991726977e-14, No Iterations 4
DICPCG:  Solving for P, Initial residual = 0.663302093916, Final residual = 2.60635853654e-14, No Iterations 4
DICPCG:  Solving for Pi.stable, Initial residual = 0.0028617192253, Final residual = 3.4365348961e-17, No Iterations 2
DICPCG:  Solving for Pi.buoyant, Initial residual = 0.00276992925396, Final residual = 3.32293167977e-17, No Iterations 2
DICPCG:  Solving for P, Initial residual = 0.453477171105, Final residual = 1.84691974452e-14, No Iterations 4
DICPCG:  Solving for P, Initial residual = 0.675345390702, Final residual = 2.75003436158e-14, No Iterations 4
ExecutionTime = 0.3 s  ClockTime = 1 s

fieldMinMax minMaxMagU write:
    min(mag(u)) = 0 in cell 0 at location (5 0.01 0)
    max(mag(u)) = 0.00123720122859 in cell 1 at location (5 0.01 0.03)
    min(mag(u.stable)) = 0 in cell 0 at location (5 0.01 0)
    max(mag(u.stable)) = 0.0535310609182 in cell 4 at location (5 0.01 0.09)
    min(mag(u.buoyant)) = 0 in cell 0 at location (5 0.01 0)
    max(mag(u.buoyant)) = 0.0534440590252 in cell 45 at location (5 0.01 0.91)

fieldMinMax minMaxDivU write:
    min(divu) = -0.104284665298 in cell 0 at location (5 0.01 0)
    max(divu) = 0.0774744280336 in cell 3 at location (5 0.01 0.07)

Time = 3.2

Courant Number mean: 2.84060984153e-16 max: 6.07153234469e-16 partition maximums: 2(0.267655304591 0.267220295126)
DICPCG:  Solving for Pi.stable, Initial residual = 0.00715790307082, Final residual = 7.78540971245e-17, No Iterations 2
DICPCG:  Solving for Pi.buoyant, Initial residual = 0.00710539173767, Final residual = 7.76600212006e-17, No Iterations 2
DICPCG:  Solving for P, Initial residual = 0.454690195778, Final residual = 1.82636652627e-14, No Iterations 4
DICPCG:  Solving for P, Initial residual = 0.6585506822, Final residual = 2.61112823385e-14, No Iterations 4
DICPCG:  Solving for Pi.stable, Initial residual = 0.00288216236339, Final residual = 3.46372796375e-17, No Iterations 2
DICPCG:  Solving for Pi.buoyant, Initial residual = 0.00279320771876, Final residual = 3.34939631547e-17, No Iterations 2
DICPCG:  Solving for P, Initial residual = 0.453575234165, Final residual = 1.86164362399e-14, No Iterations 4
DICPCG:  Solving for P, Initial residual = 0.67050571802, Final residual = 2.75153360751e-14, No Iterations 4
ExecutionTime = 0.31 s  ClockTime = 1 s

fieldMinMax minMaxMagU write:
    min(mag(u)) = 0 in cell 0 at location (5 0.01 0)
    max(mag(u)) = 0.00124635840603 in cell 1 at location (5 0.01 0.03)
    min(mag(u.stable)) = 0 in cell 0 at location (5 0.01 0)
    max(mag(u.stable)) = 0.0537113731533 in cell 4 at location (5 0.01 0.09)
    min(mag(u.buoyant)) = 0 in cell 0 at location (5 0.01 0)
    max(mag(u.buoyant)) = 0.053636562721 in cell 45 at location (5 0.01 0.91)

fieldMinMax minMaxDivU write:
    min(divu) = -0.105080487734 in cell 0 at location (5 0.01 0)
    max(divu) = 0.0778061564956 in cell 3 at location (5 0.01 0.07)

Time = 3.3

Courant Number mean: 2.96746149484e-16 max: 6.07153235805e-16 partition maximums: 2(0.268556865767 0.268182813605)
DICPCG:  Solving for Pi.stable, Initial residual = 0.00681567077279, Final residual = 7.52597134841e-17, No Iterations 2
DICPCG:  Solving for Pi.buoyant, Initial residual = 0.00671404492599, Final residual = 7.49340833235e-17, No Iterations 2
DICPCG:  Solving for P, Initial residual = 0.454577274341, Final residual = 1.83969540165e-14, No Iterations 4
DICPCG:  Solving for P, Initial residual = 0.653749718336, Final residual = 2.61295792694e-14, No Iterations 4
DICPCG:  Solving for Pi.stable, Initial residual = 0.00289977612271, Final residual = 3.48736288114e-17, No Iterations 2
DICPCG:  Solving for Pi.buoyant, Initial residual = 0.00281446253762, Final residual = 3.37247133428e-17, No Iterations 2
DICPCG:  Solving for P, Initial residual = 0.453248139407, Final residual = 1.87327192755e-14, No Iterations 4
DICPCG:  Solving for P, Initial residual = 0.665459611704, Final residual = 2.74989531687e-14, No Iterations 4
ExecutionTime = 0.32 s  ClockTime = 1 s

fieldMinMax minMaxMagU write:
    min(mag(u)) = 0 in cell 0 at location (5 0.01 0)
    max(mag(u)) = 0.00125463474856 in cell 1 at location (5 0.01 0.03)
    min(mag(u.stable)) = 0 in cell 0 at location (5 0.01 0)
    max(mag(u.stable)) = 0.0538768646097 in cell 4 at location (5 0.01 0.09)
    min(mag(u.buoyant)) = 0 in cell 0 at location (5 0.01 0)
    max(mag(u.buoyant)) = 0.0538132730616 in cell 45 at location (5 0.01 0.91)

fieldMinMax minMaxDivU write:
    min(divu) = -0.105799920336 in cell 0 at location (5 0.01 0)
    max(divu) = 0.0781070627349 in cell 3 at location (5 0.01 0.07)

Time = 3.4

Courant Number mean: 2.90783037607e-16 max: 6.17995257349e-16 partition maximums: 2(0.269384323049 0.269066365308)
DICPCG:  Solving for Pi.stable, Initial residual = 0.00651831506926, Final residual = 7.27259138668e-17, No Iterations 2
DICPCG:  Solving for Pi.buoyant, Initial residual = 0.00641692075929, Final residual = 7.25022057228e-17, No Iterations 2
DICPCG:  Solving for P, Initial residual = 0.454043489599, Final residual = 1.84998134014e-14, No Iterations 4
DICPCG:  Solving for P, Initial residual = 0.648741206093, Final residual = 2.61168608925e-14, No Iterations 4
DICPCG:  Solving for Pi.stable, Initial residual = 0.00291433031434, Final residual = 3.50685131077e-17, No Iterations 2
DICPCG:  Solving for Pi.buoyant, Initial residual = 0.00283044186637, Final residual = 3.38966874114e-17, No Iterations 2
DICPCG:  Solving for P, Initial residual = 0.452528380289, Final residual = 1.88215911681e-14, No Iterations 4
DICPCG:  Solving for P, Initial residual = 0.660214055667, Final residual = 2.74554726554e-14, No Iterations 4
ExecutionTime = 0.33 s  ClockTime = 1 s

fieldMinMax minMaxMagU write:
    min(mag(u)) = 0 in cell 0 at location (5 0.01 0)
    max(mag(u)) = 0.0012620901217 in cell 1 at location (5 0.01 0.03)
    min(mag(u.stable)) = 0 in cell 0 at location (5 0.01 0)
    max(mag(u.stable)) = 0.0540286797936 in cell 4 at location (5 0.01 0.09)
    min(mag(u.buoyant)) = 0 in cell 0 at location (5 0.01 0)
    max(mag(u.buoyant)) = 0.0539753285143 in cell 45 at location (5 0.01 0.91)

fieldMinMax minMaxDivU write:
    min(divu) = -0.10644810292 in cell 0 at location (5 0.01 0)
    max(divu) = 0.0783795009906 in cell 3 at location (5 0.01 0.07)

Time = 3.5

Courant Number mean: 3.08455533059e-16 max: 6.50521319475e-16 partition maximums: 2(0.270143398968 0.269876642571)
DICPCG:  Solving for Pi.stable, Initial residual = 0.00628000258554, Final residual = 7.05331081073e-17, No Iterations 2
DICPCG:  Solving for Pi.buoyant, Initial residual = 0.00617267704283, Final residual = 7.00936473442e-17, No Iterations 2
DICPCG:  Solving for P, Initial residual = 0.453127858108, Final residual = 1.85755171896e-14, No Iterations 4
DICPCG:  Solving for P, Initial residual = 0.64355715211, Final residual = 2.60775535445e-14, No Iterations 4
DICPCG:  Solving for Pi.stable, Initial residual = 0.00292570371178, Final residual = 3.52253763039e-17, No Iterations 2
DICPCG:  Solving for Pi.buoyant, Initial residual = 0.00284278093481, Final residual = 3.40275510705e-17, No Iterations 2
DICPCG:  Solving for P, Initial residual = 0.451503738968, Final residual = 1.88881730833e-14, No Iterations 4
DICPCG:  Solving for P, Initial residual = 0.654908058633, Final residual = 2.73934035701e-14, No Iterations 4
ExecutionTime = 0.33 s  ClockTime = 1 s

fieldMinMax minMaxMagU write:
    min(mag(u)) = 0 in cell 0 at location (5 0.01 0)
    max(mag(u)) = 0.00126878168231 in cell 1 at location (5 0.01 0.03)
    min(mag(u.stable)) = 0 in cell 0 at location (5 0.01 0)
    max(mag(u.stable)) = 0.0541678873495 in cell 4 at location (5 0.01 0.09)
    min(mag(u.buoyant)) = 0 in cell 0 at location (5 0.01 0)
    max(mag(u.buoyant)) = 0.0541238139481 in cell 45 at location (5 0.01 0.91)

fieldMinMax minMaxDivU write:
    min(divu) = -0.107029952732 in cell 0 at location (5 0.01 0)
    max(divu) = 0.0786256760851 in cell 3 at location (5 0.01 0.07)

Time = 3.6

Courant Number mean: 2.99673495554e-16 max: 6.17995256747e-16 partition maximums: 2(0.270839436748 0.27061906974)
DICPCG:  Solving for Pi.stable, Initial residual = 0.00606115560746, Final residual = 6.87830095173e-17, No Iterations 2
DICPCG:  Solving for Pi.buoyant, Initial residual = 0.00596146388407, Final residual = 6.77336158744e-17, No Iterations 2
DICPCG:  Solving for P, Initial residual = 0.451955822641, Final residual = 1.86301283535e-14, No Iterations 4
DICPCG:  Solving for P, Initial residual = 0.638362383371, Final residual = 2.60213475548e-14, No Iterations 4
DICPCG:  Solving for Pi.stable, Initial residual = 0.00293492221477, Final residual = 3.53598540104e-17, No Iterations 2
DICPCG:  Solving for Pi.buoyant, Initial residual = 0.00285149233479, Final residual = 3.41168855062e-17, No Iterations 2
DICPCG:  Solving for P, Initial residual = 0.450297747881, Final residual = 1.89365482251e-14, No Iterations 4
DICPCG:  Solving for P, Initial residual = 0.649705622131, Final residual = 2.73186544839e-14, No Iterations 4
ExecutionTime = 0.34 s  ClockTime = 1 s

fieldMinMax minMaxMagU write:
    min(mag(u)) = 0 in cell 0 at location (5 0.01 0)
    max(mag(u)) = 0.00127476391846 in cell 1 at location (5 0.01 0.03)
    min(mag(u.stable)) = 0 in cell 0 at location (5 0.01 0)
    max(mag(u.stable)) = 0.0542954869095 in cell 4 at location (5 0.01 0.09)
    min(mag(u.buoyant)) = 0 in cell 0 at location (5 0.01 0)
    max(mag(u.buoyant)) = 0.05425976028 in cell 45 at location (5 0.01 0.91)

fieldMinMax minMaxDivU write:
    min(divu) = -0.10755016373 in cell 0 at location (5 0.01 0)
    max(divu) = 0.0788476547026 in cell 3 at location (5 0.01 0.07)

Time = 3.7

Courant Number mean: 2.88506213186e-16 max: 6.17995253452e-16 partition maximums: 2(0.271477434547 0.2712988014)
DICPCG:  Solving for Pi.stable, Initial residual = 0.0058526750051, Final residual = 6.70779079909e-17, No Iterations 2
DICPCG:  Solving for Pi.buoyant, Initial residual = 0.00578215180231, Final residual = 6.54504637036e-17, No Iterations 2
DICPCG:  Solving for P, Initial residual = 0.450602637028, Final residual = 1.86667831681e-14, No Iterations 4
DICPCG:  Solving for P, Initial residual = 0.633275549751, Final residual = 2.59523307951e-14, No Iterations 4
DICPCG:  Solving for Pi.stable, Initial residual = 0.00294144934483, Final residual = 3.5458843474e-17, No Iterations 2
DICPCG:  Solving for Pi.buoyant, Initial residual = 0.00285772778481, Final residual = 3.42976510558e-17, No Iterations 2
DICPCG:  Solving for P, Initial residual = 0.448881205654, Final residual = 1.89688642854e-14, No Iterations 4
DICPCG:  Solving for P, Initial residual = 0.644539871137, Final residual = 2.7233588739e-14, No Iterations 4
ExecutionTime = 0.35 s  ClockTime = 1 s

fieldMinMax minMaxMagU write:
    min(mag(u)) = 0 in cell 0 at location (5 0.01 0)
    max(mag(u)) = 0.00128008870669 in cell 1 at location (5 0.01 0.03)
    min(mag(u.stable)) = 0 in cell 0 at location (5 0.01 0)
    max(mag(u.stable)) = 0.0544124139388 in cell 4 at location (5 0.01 0.09)
    min(mag(u.buoyant)) = 0 in cell 0 at location (5 0.01 0)
    max(mag(u.buoyant)) = 0.0543841444181 in cell 45 at location (5 0.01 0.91)

fieldMinMax minMaxDivU write:
    min(divu) = -0.108013211158 in cell 0 at location (5 0.01 0)
    max(divu) = 0.0790473760063 in cell 3 at location (5 0.01 0.07)

Time = 3.8

Courant Number mean: 3.28730113821e-16 max: 6.72205364621e-16 partition maximums: 2(0.272062069694 0.27192072209)
DICPCG:  Solving for Pi.stable, Initial residual = 0.00568688281505, Final residual = 6.53899076278e-17, No Iterations 2
DICPCG:  Solving for Pi.buoyant, Initial residual = 0.00563622256583, Final residual = 6.32514213804e-17, No Iterations 2
DICPCG:  Solving for P, Initial residual = 0.449043932378, Final residual = 1.86876834069e-14, No Iterations 4
DICPCG:  Solving for P, Initial residual = 0.628241085453, Final residual = 2.58728204328e-14, No Iterations 4
DICPCG:  Solving for Pi.stable, Initial residual = 0.00294460034407, Final residual = 3.55164458158e-17, No Iterations 2
DICPCG:  Solving for Pi.buoyant, Initial residual = 0.00286146716983, Final residual = 3.45047696083e-17, No Iterations 2
DICPCG:  Solving for P, Initial residual = 0.447270109936, Final residual = 1.89871657711e-14, No Iterations 4
DICPCG:  Solving for P, Initial residual = 0.639407924934, Final residual = 2.71402938658e-14, No Iterations 4
ExecutionTime = 0.36 s  ClockTime = 1 s

fieldMinMax minMaxMagU write:
    min(mag(u)) = 0 in cell 0 at location (5 0.01 0)
    max(mag(u)) = 0.00128480538578 in cell 1 at location (5 0.01 0.03)
    min(mag(u.stable)) = 0 in cell 0 at location (5 0.01 0)
    max(mag(u.stable)) = 0.0545195440846 in cell 4 at location (5 0.01 0.09)
    min(mag(u.buoyant)) = 0 in cell 0 at location (5 0.01 0)
    max(mag(u.buoyant)) = 0.0544978895669 in cell 45 at location (5 0.01 0.91)

fieldMinMax minMaxDivU write:
    min(divu) = -0.108423355969 in cell 0 at location (5 0.01 0.01)
    max(divu) = 0.0792266593148 in cell 3 at location (5 0.01 0.07)

Time = 3.9

Courant Number mean: 3.09648155711e-16 max: 6.72205364274e-16 partition maximums: 2(0.272597720423 0.272489447835)
DICPCG:  Solving for Pi.stable, Initial residual = 0.00558831965945, Final residual = 6.36996671216e-17, No Iterations 2
DICPCG:  Solving for Pi.buoyant, Initial residual = 0.00554295214308, Final residual = 6.12411253625e-17, No Iterations 2
DICPCG:  Solving for P, Initial residual = 0.447303763614, Final residual = 1.86948203247e-14, No Iterations 4
DICPCG:  Solving for P, Initial residual = 0.623254915541, Final residual = 2.5784928562e-14, No Iterations 4
DICPCG:  Solving for Pi.stable, Initial residual = 0.00294618886821, Final residual = 3.55530414246e-17, No Iterations 2
DICPCG:  Solving for Pi.buoyant, Initial residual = 0.0028632369392, Final residual = 3.46798026262e-17, No Iterations 2
DICPCG:  Solving for P, Initial residual = 0.445495060436, Final residual = 1.89932645819e-14, No Iterations 4
DICPCG:  Solving for P, Initial residual = 0.634321612426, Final residual = 2.70405424161e-14, No Iterations 4
ExecutionTime = 0.36 s  ClockTime = 1 s

fieldMinMax minMaxMagU write:
    min(mag(u)) = 0 in cell 0 at location (5 0.01 0)
    max(mag(u)) = 0.0012889608229 in cell 1 at location (5 0.01 0.03)
    min(mag(u.stable)) = 0 in cell 0 at location (5 0.01 0)
    max(mag(u.stable)) = 0.0546176965501 in cell 4 at location (5 0.01 0.09)
    min(mag(u.buoyant)) = 0 in cell 0 at location (5 0.01 0)
    max(mag(u.buoyant)) = 0.0546018659762 in cell 45 at location (5 0.01 0.91)

fieldMinMax minMaxDivU write:
    min(divu) = -0.108784650142 in cell 0 at location (5 0.01 0.01)
    max(divu) = 0.0793872112372 in cell 3 at location (5 0.01 0.07)

Time = 4

Courant Number mean: 2.98697713762e-16 max: 6.2883727703e-16 partition maximums: 2(0.27308848275 0.273009329881)
DICPCG:  Solving for Pi.stable, Initial residual = 0.00552220119639, Final residual = 6.21288056952e-17, No Iterations 2
DICPCG:  Solving for Pi.buoyant, Initial residual = 0.00547258008965, Final residual = 5.96714005443e-17, No Iterations 2
DICPCG:  Solving for P, Initial residual = 0.445407964106, Final residual = 1.86899460778e-14, No Iterations 4
DICPCG:  Solving for P, Initial residual = 0.618321548442, Final residual = 2.56902165799e-14, No Iterations 4
DICPCG:  Solving for Pi.stable, Initial residual = 0.00294617456565, Final residual = 3.55590162409e-17, No Iterations 2
DICPCG:  Solving for Pi.buoyant, Initial residual = 0.00286449499249, Final residual = 3.4832472883e-17, No Iterations 2
DICPCG:  Solving for P, Initial residual = 0.44355031152, Final residual = 1.8987622671e-14, No Iterations 4
DICPCG:  Solving for P, Initial residual = 0.629238931768, Final residual = 2.69336741965e-14, No Iterations 4
ExecutionTime = 0.38 s  ClockTime = 1 s

fieldMinMax minMaxMagU write:
    min(mag(u)) = 0 in cell 0 at location (5 0.01 0)
    max(mag(u)) = 0.00129259947989 in cell 1 at location (5 0.01 0.03)
    min(mag(u.stable)) = 0 in cell 0 at location (5 0.01 0)
    max(mag(u.stable)) = 0.0547076370345 in cell 4 at location (5 0.01 0.09)
    min(mag(u.buoyant)) = 0 in cell 0 at location (5 0.01 0)
    max(mag(u.buoyant)) = 0.054696891857 in cell 45 at location (5 0.01 0.91)

fieldMinMax minMaxDivU write:
    min(divu) = -0.10910094134 in cell 0 at location (5 0.01 0.01)
    max(divu) = 0.0795306313447 in cell 3 at location (5 0.01 0.07)

Time = 4.1

Courant Number mean: 3.0910605447e-16 max: 6.39679298372e-16 partition maximums: 2(0.273538185172 0.273484459285)
DICPCG:  Solving for Pi.stable, Initial residual = 0.00548001276693, Final residual = 6.07139811166e-17, No Iterations 2
DICPCG:  Solving for Pi.buoyant, Initial residual = 0.00542873990905, Final residual = 5.82631558721e-17, No Iterations 2
DICPCG:  Solving for P, Initial residual = 0.443346310451, Final residual = 1.8673232377e-14, No Iterations 4
DICPCG:  Solving for P, Initial residual = 0.613388818435, Final residual = 2.55875540033e-14, No Iterations 4
DICPCG:  Solving for Pi.stable, Initial residual = 0.00294413337737, Final residual = 3.55437579455e-17, No Iterations 2
DICPCG:  Solving for Pi.buoyant, Initial residual = 0.00286385223655, Final residual = 3.49467773167e-17, No Iterations 2
DICPCG:  Solving for P, Initial residual = 0.441452412145, Final residual = 1.89712932764e-14, No Iterations 4
DICPCG:  Solving for P, Initial residual = 0.624166286825, Final residual = 2.682065316e-14, No Iterations 4
ExecutionTime = 0.39 s  ClockTime = 1 s

fieldMinMax minMaxMagU write:
    min(mag(u)) = 0 in cell 0 at location (5 0.01 0)
    max(mag(u)) = 0.00129576347079 in cell 1 at location (5 0.01 0.03)
    min(mag(u.stable)) = 0 in cell 0 at location (5 0.01 0)
    max(mag(u.stable)) = 0.0547900770389 in cell 4 at location (5 0.01 0.09)
    min(mag(u.buoyant)) = 0 in cell 0 at location (5 0.01 0)
    max(mag(u.buoyant)) = 0.0547891232207 in cell 46 at location (5 0.01 0.93)

fieldMinMax minMaxDivU write:
    min(divu) = -0.109375877475 in cell 0 at location (5 0.01 0)
    max(divu) = 0.0796584170253 in cell 3 at location (5 0.01 0.07)

Time = 4.2

Courant Number mean: 3.12792341727e-16 max: 6.61363341395e-16 partition maximums: 2(0.273950385194 0.273945616104)
DICPCG:  Solving for Pi.stable, Initial residual = 0.00543223349758, Final residual = 5.92413957528e-17, No Iterations 2
DICPCG:  Solving for Pi.buoyant, Initial residual = 0.00538558551374, Final residual = 5.69375644671e-17, No Iterations 2
DICPCG:  Solving for P, Initial residual = 0.441153405937, Final residual = 1.86464298659e-14, No Iterations 4
DICPCG:  Solving for P, Initial residual = 0.608500579565, Final residual = 2.54791270983e-14, No Iterations 4
DICPCG:  Solving for Pi.stable, Initial residual = 0.00294097478273, Final residual = 3.55478521051e-17, No Iterations 2
DICPCG:  Solving for Pi.buoyant, Initial residual = 0.00286208735848, Final residual = 3.50419234344e-17, No Iterations 2
DICPCG:  Solving for P, Initial residual = 0.439303305525, Final residual = 1.8945320469e-14, No Iterations 4
DICPCG:  Solving for P, Initial residual = 0.619215878854, Final residual = 2.67021145906e-14, No Iterations 4
ExecutionTime = 0.39 s  ClockTime = 1 s

fieldMinMax minMaxMagU write:
    min(mag(u)) = 0 in cell 0 at location (5 0.01 0)
    max(mag(u)) = 0.00129849261881 in cell 1 at location (5 0.01 0.03)
    min(mag(u.stable)) = 0 in cell 0 at location (5 0.01 0)
    max(mag(u.stable)) = 0.0548656802708 in cell 4 at location (5 0.01 0.09)
    min(mag(u.buoyant)) = 0 in cell 0 at location (5 0.01 0)
    max(mag(u.buoyant)) = 0.0548730974776 in cell 46 at location (5 0.01 0.93)

fieldMinMax minMaxDivU write:
    min(divu) = -0.109612910762 in cell 0 at location (5 0.01 0.01)
    max(divu) = 0.0797719646522 in cell 3 at location (5 0.01 0.07)

Time = 4.3

Courant Number mean: 3.05094506324e-16 max: 6.50521316397e-16 partition maximums: 2(0.274328401354 0.274365487388)
DICPCG:  Solving for Pi.stable, Initial residual = 0.00539182511033, Final residual = 5.8054909037e-17, No Iterations 2
DICPCG:  Solving for Pi.buoyant, Initial residual = 0.00534586016831, Final residual = 5.57099434198e-17, No Iterations 2
DICPCG:  Solving for P, Initial residual = 0.438965674329, Final residual = 1.86113985838e-14, No Iterations 4
DICPCG:  Solving for P, Initial residual = 0.603812599072, Final residual = 2.53672172226e-14, No Iterations 4
DICPCG:  Solving for Pi.stable, Initial residual = 0.00293653371745, Final residual = 3.56070825321e-17, No Iterations 2
DICPCG:  Solving for Pi.buoyant, Initial residual = 0.00285906491513, Final residual = 3.51091409301e-17, No Iterations 2
DICPCG:  Solving for P, Initial residual = 0.43712026334, Final residual = 1.89087945273e-14, No Iterations 4
DICPCG:  Solving for P, Initial residual = 0.614390984036, Final residual = 2.65752851595e-14, No Iterations 4
ExecutionTime = 0.4 s  ClockTime = 1 s

fieldMinMax minMaxMagU write:
    min(mag(u)) = 0 in cell 0 at location (5 0.01 0)
    max(mag(u)) = 0.00130082452083 in cell 1 at location (5 0.01 0.03)
    min(mag(u.stable)) = 0 in cell 0 at location (5 0.01 0)
    max(mag(u.stable)) = 0.0549350811503 in cell 4 at location (5 0.01 0.09)
    min(mag(u.buoyant)) = 0 in cell 0 at location (5 0.01 0)
    max(mag(u.buoyant)) = 0.0549473440424 in cell 46 at location (5 0.01 0.93)

fieldMinMax minMaxDivU write:
    min(divu) = -0.109815303332 in cell 0 at location (5 0.01 0.01)
    max(divu) = 0.0798725791363 in cell 3 at location (5 0.01 0.07)

Time = 4.4

Courant Number mean: 3.14527065212e-16 max: 6.72205359424e-16 partition maximums: 2(0.274675405751 0.274736720212)
DICPCG:  Solving for Pi.stable, Initial residual = 0.00536429174223, Final residual = 5.68930011296e-17, No Iterations 2
DICPCG:  Solving for Pi.buoyant, Initial residual = 0.00530317277527, Final residual = 5.45684581516e-17, No Iterations 2
DICPCG:  Solving for P, Initial residual = 0.436687125887, Final residual = 1.85672661417e-14, No Iterations 4
DICPCG:  Solving for P, Initial residual = 0.599122262164, Final residual = 2.52492392733e-14, No Iterations 4
DICPCG:  Solving for Pi.stable, Initial residual = 0.00293082731368, Final residual = 3.56394770616e-17, No Iterations 2
DICPCG:  Solving for Pi.buoyant, Initial residual = 0.0028552491024, Final residual = 3.51530571876e-17, No Iterations 2
DICPCG:  Solving for P, Initial residual = 0.434910859444, Final residual = 1.88657609473e-14, No Iterations 4
DICPCG:  Solving for P, Initial residual = 0.609722099472, Final residual = 2.64470333987e-14, No Iterations 4
ExecutionTime = 0.4 s  ClockTime = 1 s

fieldMinMax minMaxMagU write:
    min(mag(u)) = 0 in cell 0 at location (5 0.01 0)
    max(mag(u)) = 0.00130279456203 in cell 1 at location (5 0.01 0.03)
    min(mag(u.stable)) = 0 in cell 0 at location (5 0.01 0)
    max(mag(u.stable)) = 0.0549988857767 in cell 4 at location (5 0.01 0.09)
    min(mag(u.buoyant)) = 0 in cell 0 at location (5 0.01 0)
    max(mag(u.buoyant)) = 0.055012766965 in cell 46 at location (5 0.01 0.93)

fieldMinMax minMaxDivU write:
    min(divu) = -0.109986128561 in cell 0 at location (5 0.01 0)
    max(divu) = 0.0799614928895 in cell 3 at location (5 0.01 0.07)

Time = 4.5

Courant Number mean: 3.40114236377e-16 max: 7.15573445901e-16 partition maximums: 2(0.274994428884 0.275063834825)
DICPCG:  Solving for Pi.stable, Initial residual = 0.00532978350831, Final residual = 5.57097657684e-17, No Iterations 2
DICPCG:  Solving for Pi.buoyant, Initial residual = 0.00527034538831, Final residual = 5.36917032408e-17, No Iterations 2
DICPCG:  Solving for P, Initial residual = 0.434434996446, Final residual = 1.85148558852e-14, No Iterations 4
DICPCG:  Solving for P, Initial residual = 0.594582621757, Final residual = 2.51257143198e-14, No Iterations 4
DICPCG:  Solving for Pi.stable, Initial residual = 0.00292403402461, Final residual = 3.56540697807e-17, No Iterations 2
DICPCG:  Solving for Pi.buoyant, Initial residual = 0.00285090954775, Final residual = 3.51848783906e-17, No Iterations 2
DICPCG:  Solving for P, Initial residual = 0.432716725468, Final residual = 1.88171728402e-14, No Iterations 4
DICPCG:  Solving for P, Initial residual = 0.605245414165, Final residual = 2.63183609271e-14, No Iterations 4
ExecutionTime = 0.41 s  ClockTime = 1 s

fieldMinMax minMaxMagU write:
    min(mag(u)) = 0 in cell 0 at location (5 0.01 0)
    max(mag(u)) = 0.00130443593465 in cell 1 at location (5 0.01 0.03)
    min(mag(u.stable)) = 0 in cell 0 at location (5 0.01 0)
    max(mag(u.stable)) = 0.0550576647896 in cell 4 at location (5 0.01 0.09)
    min(mag(u.buoyant)) = 0 in cell 0 at location (5 0.01 0)
    max(mag(u.buoyant)) = 0.0550702163865 in cell 46 at location (5 0.01 0.93)

fieldMinMax minMaxDivU write:
    min(divu) = -0.110128269762 in cell 0 at location (5 0.01 0)
    max(divu) = 0.0800398689089 in cell 3 at location (5 0.01 0.07)

Time = 4.6

Courant Number mean: 3.42933161953e-16 max: 6.93889402051e-16 partition maximums: 2(0.275288323948 0.275351081932)
DICPCG:  Solving for Pi.stable, Initial residual = 0.00530049825282, Final residual = 5.47712879205e-17, No Iterations 2
DICPCG:  Solving for Pi.buoyant, Initial residual = 0.00523231381989, Final residual = 5.29419272304e-17, No Iterations 2
DICPCG:  Solving for P, Initial residual = 0.432207147489, Final residual = 1.84568086237e-14, No Iterations 4
DICPCG:  Solving for P, Initial residual = 0.590317778277, Final residual = 2.5000736742e-14, No Iterations 4
DICPCG:  Solving for Pi.stable, Initial residual = 0.00291635581021, Final residual = 3.56477606047e-17, No Iterations 2
DICPCG:  Solving for Pi.buoyant, Initial residual = 0.00284611365434, Final residual = 3.52022959509e-17, No Iterations 2
DICPCG:  Solving for P, Initial residual = 0.430473747054, Final residual = 1.87625008724e-14, No Iterations 4
DICPCG:  Solving for P, Initial residual = 0.600854223833, Final residual = 2.61873355961e-14, No Iterations 4
ExecutionTime = 0.42 s  ClockTime = 1 s

fieldMinMax minMaxMagU write:
    min(mag(u)) = 0 in cell 0 at location (5 0.01 0)
    max(mag(u)) = 0.00130577983491 in cell 1 at location (5 0.01 0.03)
    min(mag(u.stable)) = 0 in cell 0 at location (5 0.01 0)
    max(mag(u.stable)) = 0.0551119506474 in cell 4 at location (5 0.01 0.09)
    min(mag(u.buoyant)) = 0 in cell 0 at location (5 0.01 0)
    max(mag(u.buoyant)) = 0.0551204876792 in cell 46 at location (5 0.01 0.93)

fieldMinMax minMaxDivU write:
    min(divu) = -0.110244436546 in cell 0 at location (5 0.01 0.01)
    max(divu) = 0.080108798845 in cell 3 at location (5 0.01 0.07)

Time = 4.7

Courant Number mean: 3.3686162976e-16 max: 7.04731425773e-16 partition maximums: 2(0.275559753237 0.275602438396)
DICPCG:  Solving for Pi.stable, Initial residual = 0.00526664686018, Final residual = 5.40368535766e-17, No Iterations 2
DICPCG:  Solving for Pi.buoyant, Initial residual = 0.00520012247415, Final residual = 5.22115897374e-17, No Iterations 2
DICPCG:  Solving for P, Initial residual = 0.429939455029, Final residual = 1.83941654661e-14, No Iterations 4
[...]
DICPCG:  Solving for P, Initial residual = 0.855748273333, Final residual = 1.97343648444e-14, No Iterations 4
DICPCG:  Solving for P, Initial residual = 0.688399475851, Final residual = 1.59282608323e-14, No Iterations 4
DICPCG:  Solving for Pi.stable, Initial residual = 0.00488196662418, Final residual = 7.02069348481e-17, No Iterations 2
DICPCG:  Solving for Pi.buoyant, Initial residual = 0.00487305638822, Final residual = 6.49455227176e-17, No Iterations 2
DICPCG:  Solving for P, Initial residual = 0.859508682095, Final residual = 2.05828192214e-14, No Iterations 4
DICPCG:  Solving for P, Initial residual = 0.669875087455, Final residual = 1.59895664937e-14, No Iterations 4
ExecutionTime = 8.33 s  ClockTime = 10 s

fieldMinMax minMaxMagU write:
    min(mag(u)) = 0 in cell 0 at location (5 0.01 0)
    max(mag(u)) = 0.00172161138778 in cell 1 at location (5 0.01 0.03)
    min(mag(u.stable)) = 0 in cell 0 at location (5 0.01 0)
    max(mag(u.stable)) = 0.0689637064098 in cell 3 at location (5 0.01 0.07)
    min(mag(u.buoyant)) = 0 in cell 0 at location (5 0.01 0)
    max(mag(u.buoyant)) = 0.0689899416613 in cell 46 at location (5 0.01 0.93)

fieldMinMax minMaxDivU write:
    min(divu) = -0.146098131458 in cell 0 at location (5 0.01 0)
    max(divu) = 0.100316219132 in cell 3 at location (5 0.01 0.07)

Time = 99

Courant Number mean: 1.68268214324e-16 max: 4.01154838944e-16 partition maximums: 2(0.344818532049 0.344949708307)
DICPCG:  Solving for Pi.stable, Initial residual = 0.00488200309264, Final residual = 7.02053321831e-17, No Iterations 2
DICPCG:  Solving for Pi.buoyant, Initial residual = 0.00487310198074, Final residual = 6.49429116082e-17, No Iterations 2
DICPCG:  Solving for P, Initial residual = 0.855750974806, Final residual = 1.97344217571e-14, No Iterations 4
DICPCG:  Solving for P, Initial residual = 0.688398050462, Final residual = 1.5928223589e-14, No Iterations 4
DICPCG:  Solving for Pi.stable, Initial residual = 0.00488197406534, Final residual = 7.02070736565e-17, No Iterations 2
DICPCG:  Solving for Pi.buoyant, Initial residual = 0.00487306321706, Final residual = 6.49456175485e-17, No Iterations 2
DICPCG:  Solving for P, Initial residual = 0.859511415915, Final residual = 2.05828809987e-14, No Iterations 4
DICPCG:  Solving for P, Initial residual = 0.669873752108, Final residual = 1.59895315904e-14, No Iterations 4
ExecutionTime = 8.34 s  ClockTime = 10 s

fieldMinMax minMaxMagU write:
    min(mag(u)) = 0 in cell 0 at location (5 0.01 0)
    max(mag(u)) = 0.00172161300259 in cell 1 at location (5 0.01 0.03)
    min(mag(u.stable)) = 0 in cell 0 at location (5 0.01 0)
    max(mag(u.stable)) = 0.0689637551865 in cell 3 at location (5 0.01 0.07)
    min(mag(u.buoyant)) = 0 in cell 0 at location (5 0.01 0)
    max(mag(u.buoyant)) = 0.0689899865546 in cell 46 at location (5 0.01 0.93)

fieldMinMax minMaxDivU write:
    min(divu) = -0.146098271445 in cell 0 at location (5 0.01 0)
    max(divu) = 0.100316289806 in cell 3 at location (5 0.01 0.07)

Time = 99.1

Courant Number mean: 1.71737661253e-16 max: 4.11996860977e-16 partition maximums: 2(0.344818775932 0.344949932773)
DICPCG:  Solving for Pi.stable, Initial residual = 0.00488201052505, Final residual = 7.02054556394e-17, No Iterations 2
DICPCG:  Solving for Pi.buoyant, Initial residual = 0.00487310849164, Final residual = 6.49430037319e-17, No Iterations 2
DICPCG:  Solving for P, Initial residual = 0.85575367627, Final residual = 1.97344797612e-14, No Iterations 4
DICPCG:  Solving for P, Initial residual = 0.688396641762, Final residual = 1.59281875702e-14, No Iterations 4
DICPCG:  Solving for Pi.stable, Initial residual = 0.0048819814891, Final residual = 7.02072125787e-17, No Iterations 2
DICPCG:  Solving for Pi.buoyant, Initial residual = 0.00487307002624, Final residual = 6.49457126328e-17, No Iterations 2
DICPCG:  Solving for P, Initial residual = 0.859514148259, Final residual = 2.05829438167e-14, No Iterations 4
DICPCG:  Solving for P, Initial residual = 0.669872432935, Final residual = 1.59894979095e-14, No Iterations 4
ExecutionTime = 8.35 s  ClockTime = 10 s

fieldMinMax minMaxMagU write:
    min(mag(u)) = 0 in cell 0 at location (5 0.01 0)
    max(mag(u)) = 0.00172161461321 in cell 1 at location (5 0.01 0.03)
    min(mag(u.stable)) = 0 in cell 0 at location (5 0.01 0)
    max(mag(u.stable)) = 0.0689638036121 in cell 3 at location (5 0.01 0.07)
    min(mag(u.buoyant)) = 0 in cell 0 at location (5 0.01 0)
    max(mag(u.buoyant)) = 0.0689900313076 in cell 46 at location (5 0.01 0.93)

fieldMinMax minMaxDivU write:
    min(divu) = -0.146098411096 in cell 0 at location (5 0.01 0.01)
    max(divu) = 0.100316359967 in cell 3 at location (5 0.01 0.07)

Time = 99.2

Courant Number mean: 1.79327076454e-16 max: 4.44522926782e-16 partition maximums: 2(0.344819018061 0.344950156538)
DICPCG:  Solving for Pi.stable, Initial residual = 0.00488201792685, Final residual = 7.02055805298e-17, No Iterations 2
DICPCG:  Solving for Pi.buoyant, Initial residual = 0.00487311495874, Final residual = 6.49430971946e-17, No Iterations 2
DICPCG:  Solving for P, Initial residual = 0.855756376157, Final residual = 1.97345388029e-14, No Iterations 4
DICPCG:  Solving for P, Initial residual = 0.688395250245, Final residual = 1.59281527768e-14, No Iterations 4
DICPCG:  Solving for Pi.stable, Initial residual = 0.00488198889197, Final residual = 7.02073518564e-17, No Iterations 2
DICPCG:  Solving for Pi.buoyant, Initial residual = 0.00487307681466, Final residual = 6.4945807287e-17, No Iterations 2
DICPCG:  Solving for P, Initial residual = 0.859516877554, Final residual = 2.05830076484e-14, No Iterations 4
DICPCG:  Solving for P, Initial residual = 0.669871130408, Final residual = 1.59894654748e-14, No Iterations 4
ExecutionTime = 8.35 s  ClockTime = 10 s

fieldMinMax minMaxMagU write:
    min(mag(u)) = 0 in cell 0 at location (5 0.01 0)
    max(mag(u)) = 0.00172161621875 in cell 1 at location (5 0.01 0.03)
    min(mag(u.stable)) = 0 in cell 0 at location (5 0.01 0)
    max(mag(u.stable)) = 0.0689638516645 in cell 3 at location (5 0.01 0.07)
    min(mag(u.buoyant)) = 0 in cell 0 at location (5 0.01 0)
    max(mag(u.buoyant)) = 0.0689900758978 in cell 46 at location (5 0.01 0.93)

fieldMinMax minMaxDivU write:
    min(divu) = -0.146098550335 in cell 0 at location (5 0.01 0.01)
    max(divu) = 0.10031642958 in cell 3 at location (5 0.01 0.07)

Time = 99.3

Courant Number mean: 1.85398608634e-16 max: 4.44522926287e-16 partition maximums: 2(0.344819258323 0.344950379489)
DICPCG:  Solving for Pi.stable, Initial residual = 0.00488202529007, Final residual = 7.02057065959e-17, No Iterations 2
DICPCG:  Solving for Pi.buoyant, Initial residual = 0.00487312138186, Final residual = 6.49431921353e-17, No Iterations 2
DICPCG:  Solving for P, Initial residual = 0.855759072902, Final residual = 1.97345988255e-14, No Iterations 4
DICPCG:  Solving for P, Initial residual = 0.688393876385, Final residual = 1.59281192177e-14, No Iterations 4
DICPCG:  Solving for Pi.stable, Initial residual = 0.00488199626873, Final residual = 7.02074907242e-17, No Iterations 2
DICPCG:  Solving for Pi.buoyant, Initial residual = 0.00487308357956, Final residual = 6.49459019201e-17, No Iterations 2
DICPCG:  Solving for P, Initial residual = 0.859519602262, Final residual = 2.05830724074e-14, No Iterations 4
DICPCG:  Solving for P, Initial residual = 0.669869844967, Final residual = 1.59894342532e-14, No Iterations 4
ExecutionTime = 8.36 s  ClockTime = 10 s

fieldMinMax minMaxMagU write:
    min(mag(u)) = 0 in cell 0 at location (5 0.01 0)
    max(mag(u)) = 0.00172161781835 in cell 1 at location (5 0.01 0.03)
    min(mag(u.stable)) = 0 in cell 0 at location (5 0.01 0)
    max(mag(u.stable)) = 0.0689638993219 in cell 3 at location (5 0.01 0.07)
    min(mag(u.buoyant)) = 0 in cell 0 at location (5 0.01 0)
    max(mag(u.buoyant)) = 0.0689901203031 in cell 46 at location (5 0.01 0.93)

fieldMinMax minMaxDivU write:
    min(divu) = -0.146098689085 in cell 0 at location (5 0.01 0)
    max(divu) = 0.100316498616 in cell 3 at location (5 0.01 0.07)

Time = 99.4

Courant Number mean: 1.73038703925e-16 max: 4.22838883866e-16 partition maximums: 2(0.344819496609 0.344950601516)
DICPCG:  Solving for Pi.stable, Initial residual = 0.00488203261216, Final residual = 7.02058337542e-17, No Iterations 2
DICPCG:  Solving for Pi.buoyant, Initial residual = 0.00487312775616, Final residual = 6.49432884163e-17, No Iterations 2
DICPCG:  Solving for P, Initial residual = 0.855761764998, Final residual = 1.97346597451e-14, No Iterations 4
DICPCG:  Solving for P, Initial residual = 0.688392520645, Final residual = 1.59280868812e-14, No Iterations 4
DICPCG:  Solving for Pi.stable, Initial residual = 0.00488200361575, Final residual = 7.02076295486e-17, No Iterations 2
DICPCG:  Solving for Pi.buoyant, Initial residual = 0.00487309031779, Final residual = 6.49459960059e-17, No Iterations 2
DICPCG:  Solving for P, Initial residual = 0.859522320882, Final residual = 2.05831380534e-14, No Iterations 4
DICPCG:  Solving for P, Initial residual = 0.669868577042, Final residual = 1.59894042634e-14, No Iterations 4
ExecutionTime = 8.37 s  ClockTime = 10 s

fieldMinMax minMaxMagU write:
    min(mag(u)) = 0 in cell 0 at location (5 0.01 0)
    max(mag(u)) = 0.00172161941118 in cell 1 at location (5 0.01 0.03)
    min(mag(u.stable)) = 0 in cell 0 at location (5 0.01 0)
    max(mag(u.stable)) = 0.068963946563 in cell 3 at location (5 0.01 0.07)
    min(mag(u.buoyant)) = 0 in cell 0 at location (5 0.01 0)
    max(mag(u.buoyant)) = 0.0689901645018 in cell 46 at location (5 0.01 0.93)

fieldMinMax minMaxDivU write:
    min(divu) = -0.146098827274 in cell 0 at location (5 0.01 0)
    max(divu) = 0.100316567042 in cell 3 at location (5 0.01 0.07)

Time = 99.5

Courant Number mean: 1.78026033932e-16 max: 4.33680905845e-16 partition maximums: 2(0.344819732815 0.344950822509)
DICPCG:  Solving for Pi.stable, Initial residual = 0.00488203988805, Final residual = 7.02059619485e-17, No Iterations 2
DICPCG:  Solving for Pi.buoyant, Initial residual = 0.00487313407868, Final residual = 6.49433857049e-17, No Iterations 2
DICPCG:  Solving for P, Initial residual = 0.85576445096, Final residual = 1.97347215585e-14, No Iterations 4
DICPCG:  Solving for P, Initial residual = 0.688391183467, Final residual = 1.59280557532e-14, No Iterations 4
DICPCG:  Solving for Pi.stable, Initial residual = 0.00488201092877, Final residual = 7.0207768168e-17, No Iterations 2
DICPCG:  Solving for Pi.buoyant, Initial residual = 0.00487309702656, Final residual = 6.49460899206e-17, No Iterations 2
DICPCG:  Solving for P, Initial residual = 0.859525031937, Final residual = 2.05832045366e-14, No Iterations 4
DICPCG:  Solving for P, Initial residual = 0.669867327034, Final residual = 1.59893754763e-14, No Iterations 4
ExecutionTime = 8.38 s  ClockTime = 10 s

fieldMinMax minMaxMagU write:
    min(mag(u)) = 0 in cell 0 at location (5 0.01 0)
    max(mag(u)) = 0.00172162099639 in cell 1 at location (5 0.01 0.03)
    min(mag(u.stable)) = 0 in cell 0 at location (5 0.01 0)
    max(mag(u.stable)) = 0.0689639933673 in cell 3 at location (5 0.01 0.07)
    min(mag(u.buoyant)) = 0 in cell 0 at location (5 0.01 0)
    max(mag(u.buoyant)) = 0.0689902084728 in cell 46 at location (5 0.01 0.93)

fieldMinMax minMaxDivU write:
    min(divu) = -0.146098964829 in cell 0 at location (5 0.01 0)
    max(divu) = 0.10031663483 in cell 3 at location (5 0.01 0.07)

Time = 99.6

Courant Number mean: 1.78242874349e-16 max: 4.33680906362e-16 partition maximums: 2(0.344819966836 0.344951042364)
DICPCG:  Solving for Pi.stable, Initial residual = 0.00488204711376, Final residual = 7.02060910973e-17, No Iterations 2
DICPCG:  Solving for Pi.buoyant, Initial residual = 0.00487314034498, Final residual = 6.49434843164e-17, No Iterations 2
DICPCG:  Solving for P, Initial residual = 0.855767129339, Final residual = 1.97347841769e-14, No Iterations 4
DICPCG:  Solving for P, Initial residual = 0.688389865277, Final residual = 1.5928025848e-14, No Iterations 4
DICPCG:  Solving for Pi.stable, Initial residual = 0.00488201820403, Final residual = 7.02079065569e-17, No Iterations 2
DICPCG:  Solving for Pi.buoyant, Initial residual = 0.00487310370234, Final residual = 6.49461835999e-17, No Iterations 2
DICPCG:  Solving for P, Initial residual = 0.85952773399, Final residual = 2.05832717966e-14, No Iterations 4
DICPCG:  Solving for P, Initial residual = 0.669866095332, Final residual = 1.59893478925e-14, No Iterations 4
ExecutionTime = 8.39 s  ClockTime = 10 s

fieldMinMax minMaxMagU write:
    min(mag(u)) = 0 in cell 0 at location (5 0.01 0)
    max(mag(u)) = 0.00172162257321 in cell 1 at location (5 0.01 0.03)
    min(mag(u.stable)) = 0 in cell 0 at location (5 0.01 0)
    max(mag(u.stable)) = 0.0689640397146 in cell 3 at location (5 0.01 0.07)
    min(mag(u.buoyant)) = 0 in cell 0 at location (5 0.01 0)
    max(mag(u.buoyant)) = 0.0689902521952 in cell 46 at location (5 0.01 0.93)

fieldMinMax minMaxDivU write:
    min(divu) = -0.146099101681 in cell 0 at location (5 0.01 0)
    max(divu) = 0.10031670195 in cell 3 at location (5 0.01 0.07)

Time = 99.7

Courant Number mean: 2.13371024755e-16 max: 4.98733037832e-16 partition maximums: 2(0.344820198573 0.344951260976)
DICPCG:  Solving for Pi.stable, Initial residual = 0.00488205428524, Final residual = 7.02062207275e-17, No Iterations 2
DICPCG:  Solving for Pi.buoyant, Initial residual = 0.00487314655143, Final residual = 6.49435834204e-17, No Iterations 2
DICPCG:  Solving for P, Initial residual = 0.855769798717, Final residual = 1.97348475438e-14, No Iterations 4
DICPCG:  Solving for P, Initial residual = 0.688388566477, Final residual = 1.59279971394e-14, No Iterations 4
DICPCG:  Solving for Pi.stable, Initial residual = 0.0048820254378, Final residual = 7.02080443021e-17, No Iterations 2
DICPCG:  Solving for Pi.buoyant, Initial residual = 0.00487311034202, Final residual = 6.49462767161e-17, No Iterations 2
DICPCG:  Solving for P, Initial residual = 0.859530425627, Final residual = 2.05833397409e-14, No Iterations 4
DICPCG:  Solving for P, Initial residual = 0.669864882298, Final residual = 1.59893215124e-14, No Iterations 4
ExecutionTime = 8.39 s  ClockTime = 10 s

fieldMinMax minMaxMagU write:
    min(mag(u)) = 0 in cell 0 at location (5 0.01 0)
    max(mag(u)) = 0.00172162414082 in cell 1 at location (5 0.01 0.03)
    min(mag(u.stable)) = 0 in cell 0 at location (5 0.01 0)
    max(mag(u.stable)) = 0.0689640855856 in cell 3 at location (5 0.01 0.07)
    min(mag(u.buoyant)) = 0 in cell 0 at location (5 0.01 0)
    max(mag(u.buoyant)) = 0.0689902956487 in cell 46 at location (5 0.01 0.93)

fieldMinMax minMaxDivU write:
    min(divu) = -0.14609923776 in cell 0 at location (5 0.01 0)
    max(divu) = 0.100316768375 in cell 3 at location (5 0.01 0.07)

Time = 99.8

Courant Number mean: 2.00143758288e-16 max: 4.87891015893e-16 partition maximums: 2(0.344820427928 0.344951478244)
DICPCG:  Solving for Pi.stable, Initial residual = 0.00488206139874, Final residual = 7.02063514146e-17, No Iterations 2
DICPCG:  Solving for Pi.buoyant, Initial residual = 0.00487315269471, Final residual = 6.494368381e-17, No Iterations 2
DICPCG:  Solving for P, Initial residual = 0.855772457704, Final residual = 1.97349116222e-14, No Iterations 4
DICPCG:  Solving for P, Initial residual = 0.688387287452, Final residual = 1.59279696265e-14, No Iterations 4
DICPCG:  Solving for Pi.stable, Initial residual = 0.00488203262653, Final residual = 7.0208181743e-17, No Iterations 2
DICPCG:  Solving for Pi.buoyant, Initial residual = 0.00487311694231, Final residual = 6.49463691636e-17, No Iterations 2
DICPCG:  Solving for P, Initial residual = 0.859533105472, Final residual = 2.05834083798e-14, No Iterations 4
DICPCG:  Solving for P, Initial residual = 0.669863688281, Final residual = 1.59892963099e-14, No Iterations 4
ExecutionTime = 8.4 s  ClockTime = 10 s

fieldMinMax minMaxMagU write:
    min(mag(u)) = 0 in cell 0 at location (5 0.01 0)
    max(mag(u)) = 0.00172162569846 in cell 1 at location (5 0.01 0.03)
    min(mag(u.stable)) = 0 in cell 0 at location (5 0.01 0)
    max(mag(u.stable)) = 0.0689641309613 in cell 3 at location (5 0.01 0.07)
    min(mag(u.buoyant)) = 0 in cell 0 at location (5 0.01 0)
    max(mag(u.buoyant)) = 0.0689903388136 in cell 46 at location (5 0.01 0.93)

fieldMinMax minMaxDivU write:
    min(divu) = -0.146099372998 in cell 0 at location (5 0.01 0)
    max(divu) = 0.100316834076 in cell 3 at location (5 0.01 0.07)

Time = 99.9

Courant Number mean: 1.74990267862e-16 max: 4.22838883683e-16 partition maximums: 2(0.344820654807 0.344951694068)
DICPCG:  Solving for Pi.stable, Initial residual = 0.00488206845072, Final residual = 7.02064825806e-17, No Iterations 2
DICPCG:  Solving for Pi.buoyant, Initial residual = 0.00487315877182, Final residual = 6.49437850947e-17, No Iterations 2
DICPCG:  Solving for P, Initial residual = 0.855775104942, Final residual = 1.97349763721e-14, No Iterations 4
DICPCG:  Solving for P, Initial residual = 0.688386028565, Final residual = 1.59279433171e-14, No Iterations 4
DICPCG:  Solving for Pi.stable, Initial residual = 0.00488203976677, Final residual = 7.02083186625e-17, No Iterations 2
DICPCG:  Solving for Pi.buoyant, Initial residual = 0.00487312350007, Final residual = 6.49464613752e-17, No Iterations 2
DICPCG:  Solving for P, Initial residual = 0.859535772177, Final residual = 2.05834775887e-14, No Iterations 4
DICPCG:  Solving for P, Initial residual = 0.669862513608, Final residual = 1.59892722848e-14, No Iterations 4
ExecutionTime = 8.41 s  ClockTime = 10 s

fieldMinMax minMaxMagU write:
    min(mag(u)) = 0 in cell 0 at location (5 0.01 0)
    max(mag(u)) = 0.00172162724538 in cell 1 at location (5 0.01 0.03)
    min(mag(u.stable)) = 0 in cell 0 at location (5 0.01 0)
    max(mag(u.stable)) = 0.0689641758234 in cell 3 at location (5 0.01 0.07)
    min(mag(u.buoyant)) = 0 in cell 0 at location (5 0.01 0)
    max(mag(u.buoyant)) = 0.0689903816702 in cell 46 at location (5 0.01 0.93)

fieldMinMax minMaxDivU write:
    min(divu) = -0.146099507331 in cell 0 at location (5 0.01 0.01)
    max(divu) = 0.100316899029 in cell 3 at location (5 0.01 0.07)

Time = 100

Courant Number mean: 1.99276396505e-16 max: 4.33680916795e-16 partition maximums: 2(0.344820879117 0.344951908351)
DICPCG:  Solving for Pi.stable, Initial residual = 0.00488207543792, Final residual = 7.02066142742e-17, No Iterations 2
DICPCG:  Solving for Pi.buoyant, Initial residual = 0.00487316478031, Final residual = 6.49438870333e-17, No Iterations 2
DICPCG:  Solving for P, Initial residual = 0.855777739101, Final residual = 1.97350417002e-14, No Iterations 4
DICPCG:  Solving for P, Initial residual = 0.688384790158, Final residual = 1.59279181703e-14, No Iterations 4
DICPCG:  Solving for Pi.stable, Initial residual = 0.00488204685523, Final residual = 7.02084548054e-17, No Iterations 2
DICPCG:  Solving for Pi.buoyant, Initial residual = 0.00487313001232, Final residual = 6.49465528775e-17, No Iterations 2
DICPCG:  Solving for P, Initial residual = 0.859538424427, Final residual = 2.05835473787e-14, No Iterations 4
DICPCG:  Solving for P, Initial residual = 0.669861358587, Final residual = 1.5989249429e-14, No Iterations 4
ExecutionTime = 8.43 s  ClockTime = 10 s

fieldMinMax minMaxMagU write:
    min(mag(u)) = 0 in cell 0 at location (5 0.01 0)
    max(mag(u)) = 0.00172162878085 in cell 1 at location (5 0.01 0.03)
    min(mag(u.stable)) = 0 in cell 0 at location (5 0.01 0)
    max(mag(u.stable)) = 0.0689642201542 in cell 3 at location (5 0.01 0.07)
    min(mag(u.buoyant)) = 0 in cell 0 at location (5 0.01 0)
    max(mag(u.buoyant)) = 0.0689904241994 in cell 46 at location (5 0.01 0.93)

fieldMinMax minMaxDivU write:
    min(divu) = -0.146099640694 in cell 0 at location (5 0.01 0)
    max(divu) = 0.100316963206 in cell 3 at location (5 0.01 0.07)

End

