/*---------------------------------------------------------------------------*\
| =========                 |                                                 |
| \\      /  F ield         | OpenFOAM: The Open Source CFD Toolbox           |
|  \\    /   O peration     | Version:  dev                                   |
|   \\  /    A nd           | Web:      www.OpenFOAM.org                      |
|    \\/     M anipulation  |                                                 |
\*---------------------------------------------------------------------------*/
Build  : dev-8b44230384bc
Exec   : moistFoam_HW
Date   : Jan 19 2018
Time   : 11:33:00
Host   : "daniel-XPS-15-9560"
PID    : 29133
I/O    : uncollated
Case   : /home/daniel/OpenFOAM/daniel-dev/run/danCases/moistBubble/moistFoam_HW
nProcs : 1
sigFpe : Enabling floating point exception trapping (FOAM_SIGFPE).
fileModificationChecking : Monitoring run-time modified files using timeStampMaster (fileModificationSkew 10)
allowSystemOperations : Allowing user-supplied system call operations

// * * * * * * * * * * * * * * * * * * * * * * * * * * * * * * * * * * * * * //
Create time

Create mesh for time = 0


Reading environmentalProperties
Making the boundary faces orthogonal
Reading thermophysical properties

Reading in air and water phases
Reading in theta
Calculating, density, Exner, pressure and temperature from atmos and theta
Reading in velocity field
Calculating face flux field U

Calculating V mass circulation field

Maximum sponge value = 0

Starting time loop

Time = 2

Courant Number mean: 0 max: 0 max Ndt = 0.0292302
DICPCG:  Solving for Exner, Initial residual = 2.80607e-05, Final residual = 2.64097e-08, No Iterations 17
DICPCG:  Solving for Exner, Initial residual = 6.33291e-10, Final residual = 6.39789e-11, No Iterations 6
DICPCG:  Solving for Exner, Initial residual = 1.64716e-05, Final residual = 1.50489e-08, No Iterations 15
DICPCG:  Solving for Exner, Initial residual = 3.8962e-09, Final residual = 6.87239e-11, No Iterations 10
time step continuity errors : sum local = 2.07515e-11, global = -1.37663e-12, cumulative = -1.37663e-12
Maximum rho difference fraction = 9.04111e-10
ExecutionTime = 0.5 s  ClockTime = 0 s

Time = 4

Courant Number mean: 3.91534e-05 max: 0.00114518 max Ndt = 0.0292298
DICPCG:  Solving for Exner, Initial residual = 3.38388e-05, Final residual = 2.30208e-08, No Iterations 17
DICPCG:  Solving for Exner, Initial residual = 2.4434e-09, Final residual = 7.91004e-11, No Iterations 9
DICPCG:  Solving for Exner, Initial residual = 1.61276e-05, Final residual = 1.09129e-08, No Iterations 15
DICPCG:  Solving for Exner, Initial residual = 9.61174e-09, Final residual = 8.11106e-11, No Iterations 12
time step continuity errors : sum local = 3.54652e-11, global = -4.03197e-12, cumulative = -5.40861e-12
Maximum rho difference fraction = 1.66247e-09
ExecutionTime = 0.87 s  ClockTime = 0 s

Time = 6

Courant Number mean: 0.000119497 max: 0.00309351 max Ndt = 0.0292305
DICPCG:  Solving for Exner, Initial residual = 2.93011e-05, Final residual = 2.72597e-08, No Iterations 17
DICPCG:  Solving for Exner, Initial residual = 4.26698e-09, Final residual = 9.9803e-11, No Iterations 9
DICPCG:  Solving for Exner, Initial residual = 1.38201e-05, Final residual = 1.23673e-08, No Iterations 15
DICPCG:  Solving for Exner, Initial residual = 1.34212e-08, Final residual = 7.14171e-11, No Iterations 13
time step continuity errors : sum local = 4.4031e-11, global = -6.72513e-12, cumulative = -1.21337e-11
Maximum rho difference fraction = 1.22897e-09
ExecutionTime = 1.26 s  ClockTime = 1 s

Time = 8

Courant Number mean: 0.000211917 max: 0.00437018 max Ndt = 0.0292306
DICPCG:  Solving for Exner, Initial residual = 2.33502e-05, Final residual = 2.09219e-08, No Iterations 17
DICPCG:  Solving for Exner, Initial residual = 6.1255e-09, Final residual = 6.81372e-11, No Iterations 10
DICPCG:  Solving for Exner, Initial residual = 8.57956e-06, Final residual = 5.54033e-09, No Iterations 16
DICPCG:  Solving for Exner, Initial residual = 1.33135e-08, Final residual = 7.01046e-11, No Iterations 13
time step continuity errors : sum local = 5.85505e-11, global = -8.69874e-12, cumulative = -2.08325e-11
Maximum rho difference fraction = 1.13256e-09
ExecutionTime = 1.66 s  ClockTime = 1 s

Time = 10

Courant Number mean: 0.000323098 max: 0.00521193 max Ndt = 0.0292267
DICPCG:  Solving for Exner, Initial residual = 2.78212e-05, Final residual = 2.01388e-08, No Iterations 17
DICPCG:  Solving for Exner, Initial residual = 6.34278e-09, Final residual = 9.14614e-11, No Iterations 10
DICPCG:  Solving for Exner, Initial residual = 1.04466e-05, Final residual = 8.44927e-09, No Iterations 16
DICPCG:  Solving for Exner, Initial residual = 1.07343e-08, Final residual = 9.47533e-11, No Iterations 12
time step continuity errors : sum local = 7.02019e-11, global = -9.07113e-12, cumulative = -2.99036e-11
Maximum rho difference fraction = 1.13685e-09
ExecutionTime = 2.05 s  ClockTime = 2 s

Time = 12

Courant Number mean: 0.000454265 max: 0.0060015 max Ndt = 0.0292209
DICPCG:  Solving for Exner, Initial residual = 2.21635e-05, Final residual = 1.67846e-08, No Iterations 17
DICPCG:  Solving for Exner, Initial residual = 7.42331e-09, Final residual = 8.18807e-11, No Iterations 11
DICPCG:  Solving for Exner, Initial residual = 7.08197e-06, Final residual = 6.91799e-09, No Iterations 16
DICPCG:  Solving for Exner, Initial residual = 1.00605e-08, Final residual = 9.62549e-11, No Iterations 12
time step continuity errors : sum local = 8.05982e-11, global = -7.48594e-12, cumulative = -3.73895e-11
Maximum rho difference fraction = 9.37145e-10
ExecutionTime = 2.43 s  ClockTime = 2 s

Time = 14

Courant Number mean: 0.000603311 max: 0.00687168 max Ndt = 0.0292161
DICPCG:  Solving for Exner, Initial residual = 2.63545e-05, Final residual = 2.30796e-08, No Iterations 17
DICPCG:  Solving for Exner, Initial residual = 8.15857e-09, Final residual = 9.33605e-11, No Iterations 11
DICPCG:  Solving for Exner, Initial residual = 9.00098e-06, Final residual = 7.05076e-09, No Iterations 16
DICPCG:  Solving for Exner, Initial residual = 1.16104e-08, Final residual = 7.3939e-11, No Iterations 13
time step continuity errors : sum local = 7.44482e-11, global = -5.35926e-12, cumulative = -4.27488e-11
Maximum rho difference fraction = 9.16459e-10
ExecutionTime = 2.82 s  ClockTime = 2 s

Time = 16

Courant Number mean: 0.000764517 max: 0.00783742 max Ndt = 0.0292131
DICPCG:  Solving for Exner, Initial residual = 2.37698e-05, Final residual = 1.76114e-08, No Iterations 17
DICPCG:  Solving for Exner, Initial residual = 8.91396e-09, Final residual = 9.76002e-11, No Iterations 11
DICPCG:  Solving for Exner, Initial residual = 6.6498e-06, Final residual = 6.47577e-09, No Iterations 16
DICPCG:  Solving for Exner, Initial residual = 1.06837e-08, Final residual = 7.20579e-11, No Iterations 13
time step continuity errors : sum local = 7.64703e-11, global = -2.98996e-12, cumulative = -4.57388e-11
Maximum rho difference fraction = 1.23918e-09
ExecutionTime = 3.21 s  ClockTime = 3 s

Time = 18

Courant Number mean: 0.000931491 max: 0.00887447 max Ndt = 0.0292114
DICPCG:  Solving for Exner, Initial residual = 2.77642e-05, Final residual = 2.67022e-08, No Iterations 16
DICPCG:  Solving for Exner, Initial residual = 1.02449e-08, Final residual = 7.26889e-11, No Iterations 12
DICPCG:  Solving for Exner, Initial residual = 8.53153e-06, Final residual = 5.72152e-09, No Iterations 16
DICPCG:  Solving for Exner, Initial residual = 9.57851e-09, Final residual = 8.61051e-11, No Iterations 12
time step continuity errors : sum local = 7.0715e-11, global = -1.69073e-13, cumulative = -4.59078e-11
Maximum rho difference fraction = 1.20139e-09
ExecutionTime = 3.59 s  ClockTime = 3 s

Time = 20

Courant Number mean: 0.00109797 max: 0.00999154 max Ndt = 0.0292105
DICPCG:  Solving for Exner, Initial residual = 2.40569e-05, Final residual = 1.58926e-08, No Iterations 17
DICPCG:  Solving for Exner, Initial residual = 1.17387e-08, Final residual = 8.24309e-11, No Iterations 12
DICPCG:  Solving for Exner, Initial residual = 6.77378e-06, Final residual = 5.06164e-09, No Iterations 16
DICPCG:  Solving for Exner, Initial residual = 1.01397e-08, Final residual = 8.32568e-11, No Iterations 12
time step continuity errors : sum local = 7.65975e-11, global = 2.09786e-12, cumulative = -4.381e-11
Maximum rho difference fraction = 1.4524e-09
ExecutionTime = 3.97 s  ClockTime = 4 s

Time = 22

Courant Number mean: 0.00125764 max: 0.0112484 max Ndt = 0.0292107
DICPCG:  Solving for Exner, Initial residual = 2.49265e-05, Final residual = 2.00674e-08, No Iterations 16
DICPCG:  Solving for Exner, Initial residual = 1.34215e-08, Final residual = 8.60788e-11, No Iterations 12
DICPCG:  Solving for Exner, Initial residual = 7.07574e-06, Final residual = 6.68022e-09, No Iterations 15
DICPCG:  Solving for Exner, Initial residual = 9.08246e-09, Final residual = 7.33061e-11, No Iterations 12
time step continuity errors : sum local = 8.82495e-11, global = 4.12609e-12, cumulative = -3.96839e-11
Maximum rho difference fraction = 2.39025e-09
ExecutionTime = 4.35 s  ClockTime = 4 s

Time = 24

Courant Number mean: 0.00140499 max: 0.0126278 max Ndt = 0.0292108
DICPCG:  Solving for Exner, Initial residual = 2.61573e-05, Final residual = 1.92805e-08, No Iterations 16
DICPCG:  Solving for Exner, Initial residual = 1.46856e-08, Final residual = 9.17633e-11, No Iterations 12
DICPCG:  Solving for Exner, Initial residual = 7.5192e-06, Final residual = 4.78996e-09, No Iterations 16
DICPCG:  Solving for Exner, Initial residual = 8.48754e-09, Final residual = 7.21438e-11, No Iterations 12
time step continuity errors : sum local = 9.6752e-11, global = 6.29671e-12, cumulative = -3.33872e-11
Maximum rho difference fraction = 3.64653e-09
ExecutionTime = 4.75 s  ClockTime = 4 s

Time = 26

Courant Number mean: 0.00153761 max: 0.0139976 max Ndt = 0.0292088
DICPCG:  Solving for Exner, Initial residual = 2.45829e-05, Final residual = 1.5764e-08, No Iterations 16
DICPCG:  Solving for Exner, Initial residual = 1.58135e-08, Final residual = 7.5012e-11, No Iterations 13
DICPCG:  Solving for Exner, Initial residual = 6.31427e-06, Final residual = 4.34702e-09, No Iterations 16
DICPCG:  Solving for Exner, Initial residual = 8.28081e-09, Final residual = 7.37353e-11, No Iterations 12
time step continuity errors : sum local = 1.04708e-10, global = 8.48518e-12, cumulative = -2.4902e-11
Maximum rho difference fraction = 4.50281e-09
ExecutionTime = 5.13 s  ClockTime = 5 s

Time = 28

Courant Number mean: 0.00165696 max: 0.0152513 max Ndt = 0.0292045
DICPCG:  Solving for Exner, Initial residual = 2.44916e-05, Final residual = 1.68433e-08, No Iterations 16
DICPCG:  Solving for Exner, Initial residual = 1.80121e-08, Final residual = 8.54742e-11, No Iterations 13
DICPCG:  Solving for Exner, Initial residual = 6.33189e-06, Final residual = 5.07866e-09, No Iterations 15
DICPCG:  Solving for Exner, Initial residual = 8.05624e-09, Final residual = 6.91072e-11, No Iterations 12
time step continuity errors : sum local = 1.11273e-10, global = 1.03054e-11, cumulative = -1.45966e-11
Maximum rho difference fraction = 5.10802e-09
ExecutionTime = 5.52 s  ClockTime = 5 s

Time = 30

Courant Number mean: 0.00176788 max: 0.0164211 max Ndt = 0.0291997
DICPCG:  Solving for Exner, Initial residual = 2.42069e-05, Final residual = 2.14181e-08, No Iterations 15
DICPCG:  Solving for Exner, Initial residual = 1.99998e-08, Final residual = 9.56191e-11, No Iterations 13
DICPCG:  Solving for Exner, Initial residual = 6.313e-06, Final residual = 5.20155e-09, No Iterations 15
DICPCG:  Solving for Exner, Initial residual = 8.34415e-09, Final residual = 7.18344e-11, No Iterations 12
time step continuity errors : sum local = 1.18776e-10, global = 1.14079e-11, cumulative = -3.18874e-12
Maximum rho difference fraction = 5.65906e-09
ExecutionTime = 5.91 s  ClockTime = 5 s

Time = 32

Courant Number mean: 0.00187006 max: 0.0176197 max Ndt = 0.0291966
DICPCG:  Solving for Exner, Initial residual = 2.38635e-05, Final residual = 1.49548e-08, No Iterations 16
DICPCG:  Solving for Exner, Initial residual = 2.04258e-08, Final residual = 7.21477e-11, No Iterations 14
DICPCG:  Solving for Exner, Initial residual = 6.6346e-06, Final residual = 5.27966e-09, No Iterations 15
DICPCG:  Solving for Exner, Initial residual = 8.45636e-09, Final residual = 7.71485e-11, No Iterations 12
time step continuity errors : sum local = 1.29557e-10, global = 1.19004e-11, cumulative = 8.71168e-12
Maximum rho difference fraction = 6.23627e-09
ExecutionTime = 6.3 s  ClockTime = 6 s

Time = 34

Courant Number mean: 0.00195914 max: 0.0188971 max Ndt = 0.0291949
DICPCG:  Solving for Exner, Initial residual = 2.37371e-05, Final residual = 1.56242e-08, No Iterations 16
DICPCG:  Solving for Exner, Initial residual = 2.11027e-08, Final residual = 7.5394e-11, No Iterations 14
DICPCG:  Solving for Exner, Initial residual = 6.64469e-06, Final residual = 4.61839e-09, No Iterations 15
DICPCG:  Solving for Exner, Initial residual = 8.6461e-09, Final residual = 7.2932e-11, No Iterations 12
time step continuity errors : sum local = 1.41856e-10, global = 1.19649e-11, cumulative = 2.06766e-11
Maximum rho difference fraction = 6.81778e-09
ExecutionTime = 6.69 s  ClockTime = 6 s

Time = 36

Courant Number mean: 0.00203794 max: 0.0201891 max Ndt = 0.0291927
DICPCG:  Solving for Exner, Initial residual = 2.41845e-05, Final residual = 2.27518e-08, No Iterations 15
DICPCG:  Solving for Exner, Initial residual = 2.31505e-08, Final residual = 7.83183e-11, No Iterations 14
DICPCG:  Solving for Exner, Initial residual = 6.91063e-06, Final residual = 5.57836e-09, No Iterations 15
DICPCG:  Solving for Exner, Initial residual = 8.81599e-09, Final residual = 9.65245e-11, No Iterations 11
time step continuity errors : sum local = 1.41939e-10, global = 1.20652e-11, cumulative = 3.27417e-11
Maximum rho difference fraction = 5.23144e-09
ExecutionTime = 7.09 s  ClockTime = 7 s

Time = 38

Courant Number mean: 0.00211563 max: 0.0214051 max Ndt = 0.0291889
DICPCG:  Solving for Exner, Initial residual = 2.38368e-05, Final residual = 1.74318e-08, No Iterations 16
DICPCG:  Solving for Exner, Initial residual = 2.38979e-08, Final residual = 7.24372e-11, No Iterations 14
DICPCG:  Solving for Exner, Initial residual = 6.64891e-06, Final residual = 5.79192e-09, No Iterations 15
DICPCG:  Solving for Exner, Initial residual = 7.76803e-09, Final residual = 7.68843e-11, No Iterations 11
time step continuity errors : sum local = 1.49161e-10, global = 1.2846e-11, cumulative = 4.55877e-11
Maximum rho difference fraction = 6.17021e-09
ExecutionTime = 7.48 s  ClockTime = 7 s

Time = 40

Courant Number mean: 0.00219309 max: 0.0225322 max Ndt = 0.0291841
DICPCG:  Solving for Exner, Initial residual = 2.38628e-05, Final residual = 1.62913e-08, No Iterations 16
DICPCG:  Solving for Exner, Initial residual = 2.33367e-08, Final residual = 7.4809e-11, No Iterations 14
DICPCG:  Solving for Exner, Initial residual = 6.2665e-06, Final residual = 6.08876e-09, No Iterations 15
DICPCG:  Solving for Exner, Initial residual = 5.80448e-09, Final residual = 8.22791e-11, No Iterations 11
time step continuity errors : sum local = 1.57679e-10, global = 1.47598e-11, cumulative = 6.03475e-11
Maximum rho difference fraction = 7.31733e-09
ExecutionTime = 7.88 s  ClockTime = 7 s

Time = 42

Courant Number mean: 0.00227707 max: 0.0236383 max Ndt = 0.0291795
DICPCG:  Solving for Exner, Initial residual = 2.2745e-05, Final residual = 1.5406e-08, No Iterations 16
DICPCG:  Solving for Exner, Initial residual = 2.32435e-08, Final residual = 7.45699e-11, No Iterations 14
DICPCG:  Solving for Exner, Initial residual = 6.56503e-06, Final residual = 6.53472e-09, No Iterations 15
DICPCG:  Solving for Exner, Initial residual = 5.38053e-09, Final residual = 6.8518e-11, No Iterations 11
time step continuity errors : sum local = 1.61033e-10, global = 1.73529e-11, cumulative = 7.77005e-11
Maximum rho difference fraction = 8.51446e-09
ExecutionTime = 8.28 s  ClockTime = 8 s

Time = 44

Courant Number mean: 0.00237691 max: 0.0247931 max Ndt = 0.0291754
DICPCG:  Solving for Exner, Initial residual = 2.05861e-05, Final residual = 1.5149e-08, No Iterations 16
DICPCG:  Solving for Exner, Initial residual = 2.38345e-08, Final residual = 7.23795e-11, No Iterations 14
DICPCG:  Solving for Exner, Initial residual = 6.30309e-06, Final residual = 5.49525e-09, No Iterations 15
DICPCG:  Solving for Exner, Initial residual = 6.64839e-09, Final residual = 9.59497e-11, No Iterations 11
time step continuity errors : sum local = 1.61213e-10, global = 2.04516e-11, cumulative = 9.81521e-11
Maximum rho difference fraction = 9.85e-09
ExecutionTime = 8.68 s  ClockTime = 8 s

Time = 46

Courant Number mean: 0.00249149 max: 0.0260095 max Ndt = 0.0291713
DICPCG:  Solving for Exner, Initial residual = 2.19409e-05, Final residual = 1.9795e-08, No Iterations 15
DICPCG:  Solving for Exner, Initial residual = 2.47126e-08, Final residual = 8.24597e-11, No Iterations 14
DICPCG:  Solving for Exner, Initial residual = 6.60297e-06, Final residual = 4.80344e-09, No Iterations 15
DICPCG:  Solving for Exner, Initial residual = 6.02253e-09, Final residual = 8.11306e-11, No Iterations 11
time step continuity errors : sum local = 1.62459e-10, global = 2.32656e-11, cumulative = 1.21418e-10
Maximum rho difference fraction = 1.16948e-08
ExecutionTime = 9.07 s  ClockTime = 9 s

Time = 48

Courant Number mean: 0.00259594 max: 0.0272572 max Ndt = 0.0291668
DICPCG:  Solving for Exner, Initial residual = 2.20057e-05, Final residual = 1.42905e-08, No Iterations 16
DICPCG:  Solving for Exner, Initial residual = 2.55801e-08, Final residual = 8.81251e-11, No Iterations 14
DICPCG:  Solving for Exner, Initial residual = 6.17264e-06, Final residual = 4.90117e-09, No Iterations 15
DICPCG:  Solving for Exner, Initial residual = 4.45226e-09, Final residual = 8.96866e-11, No Iterations 10
time step continuity errors : sum local = 1.67678e-10, global = 2.53443e-11, cumulative = 1.46762e-10
Maximum rho difference fraction = 1.30004e-08
ExecutionTime = 9.48 s  ClockTime = 9 s

Time = 50

Courant Number mean: 0.00267949 max: 0.02851 max Ndt = 0.0291623
DICPCG:  Solving for Exner, Initial residual = 2.03847e-05, Final residual = 1.60365e-08, No Iterations 16
DICPCG:  Solving for Exner, Initial residual = 2.69166e-08, Final residual = 9.51974e-11, No Iterations 14
DICPCG:  Solving for Exner, Initial residual = 5.70981e-06, Final residual = 3.71753e-09, No Iterations 16
DICPCG:  Solving for Exner, Initial residual = 6.21215e-09, Final residual = 7.94634e-11, No Iterations 11
time step continuity errors : sum local = 1.70666e-10, global = 2.58857e-11, cumulative = 1.72648e-10
Maximum rho difference fraction = 1.17095e-08
ExecutionTime = 9.86 s  ClockTime = 9 s

Time = 52

Courant Number mean: 0.00274835 max: 0.0297672 max Ndt = 0.0291578
DICPCG:  Solving for Exner, Initial residual = 2.05155e-05, Final residual = 1.743e-08, No Iterations 16
DICPCG:  Solving for Exner, Initial residual = 2.76545e-08, Final residual = 9.71092e-11, No Iterations 14
DICPCG:  Solving for Exner, Initial residual = 5.99028e-06, Final residual = 3.93215e-09, No Iterations 16
DICPCG:  Solving for Exner, Initial residual = 7.72197e-09, Final residual = 9.32324e-11, No Iterations 11
time step continuity errors : sum local = 1.79813e-10, global = 2.52738e-11, cumulative = 1.97921e-10
Maximum rho difference fraction = 1.0765e-08
ExecutionTime = 10.25 s  ClockTime = 10 s

Time = 54

Courant Number mean: 0.00282709 max: 0.0310364 max Ndt = 0.0291534
DICPCG:  Solving for Exner, Initial residual = 2.06569e-05, Final residual = 1.66601e-08, No Iterations 16
DICPCG:  Solving for Exner, Initial residual = 2.82213e-08, Final residual = 9.52414e-11, No Iterations 14
DICPCG:  Solving for Exner, Initial residual = 5.61154e-06, Final residual = 5.58257e-09, No Iterations 15
DICPCG:  Solving for Exner, Initial residual = 7.07363e-09, Final residual = 9.39806e-11, No Iterations 11
time step continuity errors : sum local = 1.93271e-10, global = 2.4289e-11, cumulative = 2.22211e-10
Maximum rho difference fraction = 1.20002e-08
ExecutionTime = 10.67 s  ClockTime = 10 s

Time = 56

Courant Number mean: 0.00295024 max: 0.0323088 max Ndt = 0.0291485
DICPCG:  Solving for Exner, Initial residual = 2.03407e-05, Final residual = 1.52711e-08, No Iterations 16
DICPCG:  Solving for Exner, Initial residual = 2.94575e-08, Final residual = 9.60491e-11, No Iterations 14
DICPCG:  Solving for Exner, Initial residual = 5.66572e-06, Final residual = 5.33462e-09, No Iterations 15
DICPCG:  Solving for Exner, Initial residual = 6.53196e-09, Final residual = 9.06279e-11, No Iterations 11
time step continuity errors : sum local = 2.08545e-10, global = 2.34894e-11, cumulative = 2.457e-10
Maximum rho difference fraction = 1.39876e-08
ExecutionTime = 11.05 s  ClockTime = 11 s

Time = 58

Courant Number mean: 0.00308516 max: 0.0335553 max Ndt = 0.029143
DICPCG:  Solving for Exner, Initial residual = 1.76664e-05, Final residual = 1.509e-08, No Iterations 16
DICPCG:  Solving for Exner, Initial residual = 3.01241e-08, Final residual = 9.73295e-11, No Iterations 14
DICPCG:  Solving for Exner, Initial residual = 5.42468e-06, Final residual = 4.79346e-09, No Iterations 15
DICPCG:  Solving for Exner, Initial residual = 6.95113e-09, Final residual = 8.3652e-11, No Iterations 11
time step continuity errors : sum local = 2.20998e-10, global = 2.28629e-11, cumulative = 2.68563e-10
Maximum rho difference fraction = 1.40971e-08
ExecutionTime = 11.44 s  ClockTime = 11 s

Time = 60

Courant Number mean: 0.00321369 max: 0.034743 max Ndt = 0.0291371
DICPCG:  Solving for Exner, Initial residual = 1.64621e-05, Final residual = 1.63499e-08, No Iterations 16
DICPCG:  Solving for Exner, Initial residual = 3.05395e-08, Final residual = 6.916e-11, No Iterations 15
DICPCG:  Solving for Exner, Initial residual = 4.71022e-06, Final residual = 4.50427e-09, No Iterations 15
DICPCG:  Solving for Exner, Initial residual = 6.64243e-09, Final residual = 9.46997e-11, No Iterations 11
time step continuity errors : sum local = 2.32411e-10, global = 2.17925e-11, cumulative = 2.90355e-10
Maximum rho difference fraction = 1.29245e-08
ExecutionTime = 11.83 s  ClockTime = 11 s

Time = 62

Courant Number mean: 0.00333781 max: 0.035857 max Ndt = 0.0291311
DICPCG:  Solving for Exner, Initial residual = 2.04444e-05, Final residual = 1.60502e-08, No Iterations 16
DICPCG:  Solving for Exner, Initial residual = 3.13177e-08, Final residual = 7.28699e-11, No Iterations 15
DICPCG:  Solving for Exner, Initial residual = 5.18226e-06, Final residual = 5.03618e-09, No Iterations 15
DICPCG:  Solving for Exner, Initial residual = 7.3778e-09, Final residual = 6.98441e-11, No Iterations 12
time step continuity errors : sum local = 2.41991e-10, global = 2.03381e-11, cumulative = 3.10693e-10
Maximum rho difference fraction = 1.3457e-08
ExecutionTime = 12.22 s  ClockTime = 12 s

Time = 64

Courant Number mean: 0.00345352 max: 0.0369109 max Ndt = 0.0291251
DICPCG:  Solving for Exner, Initial residual = 2.01048e-05, Final residual = 1.65724e-08, No Iterations 16
DICPCG:  Solving for Exner, Initial residual = 3.24528e-08, Final residual = 7.45052e-11, No Iterations 15
DICPCG:  Solving for Exner, Initial residual = 5.01685e-06, Final residual = 3.16374e-09, No Iterations 16
DICPCG:  Solving for Exner, Initial residual = 8.39795e-09, Final residual = 7.04878e-11, No Iterations 12
time step continuity errors : sum local = 2.51642e-10, global = 1.8688e-11, cumulative = 3.29381e-10
Maximum rho difference fraction = 1.40374e-08
ExecutionTime = 12.6 s  ClockTime = 12 s

Time = 66

Courant Number mean: 0.00357789 max: 0.037944 max Ndt = 0.0291199
DICPCG:  Solving for Exner, Initial residual = 1.644e-05, Final residual = 1.10505e-08, No Iterations 17
DICPCG:  Solving for Exner, Initial residual = 3.3194e-08, Final residual = 7.55819e-11, No Iterations 15
DICPCG:  Solving for Exner, Initial residual = 4.1829e-06, Final residual = 3.05617e-09, No Iterations 16
DICPCG:  Solving for Exner, Initial residual = 8.5486e-09, Final residual = 7.04366e-11, No Iterations 12
time step continuity errors : sum local = 2.59212e-10, global = 1.76981e-11, cumulative = 3.4708e-10
Maximum rho difference fraction = 1.4614e-08
ExecutionTime = 12.98 s  ClockTime = 13 s

Time = 68

Courant Number mean: 0.00369457 max: 0.039005 max Ndt = 0.0291146
DICPCG:  Solving for Exner, Initial residual = 1.81979e-05, Final residual = 1.80805e-08, No Iterations 16
DICPCG:  Solving for Exner, Initial residual = 3.41677e-08, Final residual = 7.75585e-11, No Iterations 15
DICPCG:  Solving for Exner, Initial residual = 4.86904e-06, Final residual = 3.18739e-09, No Iterations 16
DICPCG:  Solving for Exner, Initial residual = 8.46077e-09, Final residual = 7.5965e-11, No Iterations 12
time step continuity errors : sum local = 2.61078e-10, global = 1.79109e-11, cumulative = 3.6499e-10
Maximum rho difference fraction = 1.52705e-08
ExecutionTime = 13.38 s  ClockTime = 13 s

Time = 70

Courant Number mean: 0.00380417 max: 0.0401323 max Ndt = 0.029109
DICPCG:  Solving for Exner, Initial residual = 1.84889e-05, Final residual = 1.44869e-08, No Iterations 16
DICPCG:  Solving for Exner, Initial residual = 3.57298e-08, Final residual = 8.03613e-11, No Iterations 15
DICPCG:  Solving for Exner, Initial residual = 4.67476e-06, Final residual = 4.52938e-09, No Iterations 15
DICPCG:  Solving for Exner, Initial residual = 9.29333e-09, Final residual = 7.13914e-11, No Iterations 12
time step continuity errors : sum local = 2.60263e-10, global = 1.92536e-11, cumulative = 3.84244e-10
Maximum rho difference fraction = 1.56921e-08
ExecutionTime = 13.76 s  ClockTime = 13 s

Time = 72

Courant Number mean: 0.00391802 max: 0.041342 max Ndt = 0.0291033
DICPCG:  Solving for Exner, Initial residual = 1.6452e-05, Final residual = 1.42708e-08, No Iterations 16
DICPCG:  Solving for Exner, Initial residual = 3.71847e-08, Final residual = 8.26645e-11, No Iterations 15
DICPCG:  Solving for Exner, Initial residual = 3.92234e-06, Final residual = 2.88922e-09, No Iterations 16
DICPCG:  Solving for Exner, Initial residual = 9.80492e-09, Final residual = 8.87824e-11, No Iterations 12
time step continuity errors : sum local = 2.5347e-10, global = 2.09011e-11, cumulative = 4.05145e-10
Maximum rho difference fraction = 1.44129e-08
ExecutionTime = 14.16 s  ClockTime = 14 s

Time = 74

Courant Number mean: 0.00402976 max: 0.0426259 max Ndt = 0.029098
DICPCG:  Solving for Exner, Initial residual = 1.74652e-05, Final residual = 1.63127e-08, No Iterations 16
DICPCG:  Solving for Exner, Initial residual = 3.80149e-08, Final residual = 8.27853e-11, No Iterations 15
DICPCG:  Solving for Exner, Initial residual = 4.57284e-06, Final residual = 3.43851e-09, No Iterations 16
DICPCG:  Solving for Exner, Initial residual = 8.23015e-09, Final residual = 7.26449e-11, No Iterations 12
time step continuity errors : sum local = 2.43275e-10, global = 2.17065e-11, cumulative = 4.26852e-10
Maximum rho difference fraction = 1.38694e-08
ExecutionTime = 14.55 s  ClockTime = 14 s

Time = 76

Courant Number mean: 0.00413744 max: 0.0439594 max Ndt = 0.0290931
DICPCG:  Solving for Exner, Initial residual = 1.87949e-05, Final residual = 1.79622e-08, No Iterations 16
DICPCG:  Solving for Exner, Initial residual = 3.937e-08, Final residual = 8.41747e-11, No Iterations 15
DICPCG:  Solving for Exner, Initial residual = 4.70324e-06, Final residual = 3.61858e-09, No Iterations 16
DICPCG:  Solving for Exner, Initial residual = 7.60201e-09, Final residual = 6.93293e-11, No Iterations 12
time step continuity errors : sum local = 2.31322e-10, global = 2.09829e-11, cumulative = 4.47834e-10
Maximum rho difference fraction = 1.32923e-08
ExecutionTime = 14.92 s  ClockTime = 14 s

Time = 78

Courant Number mean: 0.0042486 max: 0.0453085 max Ndt = 0.0290884
DICPCG:  Solving for Exner, Initial residual = 1.74234e-05, Final residual = 1.27321e-08, No Iterations 16
DICPCG:  Solving for Exner, Initial residual = 4.07568e-08, Final residual = 8.94598e-11, No Iterations 15
DICPCG:  Solving for Exner, Initial residual = 4.22765e-06, Final residual = 2.96773e-09, No Iterations 16
DICPCG:  Solving for Exner, Initial residual = 1.06741e-08, Final residual = 6.77424e-11, No Iterations 13
time step continuity errors : sum local = 2.29736e-10, global = 1.93237e-11, cumulative = 4.67158e-10
Maximum rho difference fraction = 1.34584e-08
ExecutionTime = 15.32 s  ClockTime = 15 s

Time = 80

Courant Number mean: 0.00436054 max: 0.046636 max Ndt = 0.0290834
DICPCG:  Solving for Exner, Initial residual = 1.47555e-05, Final residual = 1.09058e-08, No Iterations 16
DICPCG:  Solving for Exner, Initial residual = 4.11879e-08, Final residual = 8.9416e-11, No Iterations 15
DICPCG:  Solving for Exner, Initial residual = 4.00687e-06, Final residual = 2.82521e-09, No Iterations 16
DICPCG:  Solving for Exner, Initial residual = 1.14685e-08, Final residual = 7.41277e-11, No Iterations 13
time step continuity errors : sum local = 2.28753e-10, global = 1.70889e-11, cumulative = 4.84247e-10
Maximum rho difference fraction = 1.36909e-08
ExecutionTime = 15.72 s  ClockTime = 15 s

Time = 82

Courant Number mean: 0.00447364 max: 0.047909 max Ndt = 0.0290777
DICPCG:  Solving for Exner, Initial residual = 1.52616e-05, Final residual = 1.38402e-08, No Iterations 16
DICPCG:  Solving for Exner, Initial residual = 4.05549e-08, Final residual = 8.29793e-11, No Iterations 15
DICPCG:  Solving for Exner, Initial residual = 4.06085e-06, Final residual = 2.9943e-09, No Iterations 16
DICPCG:  Solving for Exner, Initial residual = 8.65253e-09, Final residual = 8.91903e-11, No Iterations 12
time step continuity errors : sum local = 2.2288e-10, global = 1.4202e-11, cumulative = 4.98449e-10
Maximum rho difference fraction = 1.28081e-08
ExecutionTime = 16.12 s  ClockTime = 16 s

Time = 84

Courant Number mean: 0.00458711 max: 0.0491108 max Ndt = 0.0290709
DICPCG:  Solving for Exner, Initial residual = 1.75723e-05, Final residual = 1.61734e-08, No Iterations 16
DICPCG:  Solving for Exner, Initial residual = 4.02283e-08, Final residual = 8.21701e-11, No Iterations 15
DICPCG:  Solving for Exner, Initial residual = 4.39534e-06, Final residual = 3.36655e-09, No Iterations 16
DICPCG:  Solving for Exner, Initial residual = 5.73538e-09, Final residual = 7.64214e-11, No Iterations 11
time step continuity errors : sum local = 2.29117e-10, global = 1.13649e-11, cumulative = 5.09814e-10
Maximum rho difference fraction = 1.17108e-08
ExecutionTime = 16.51 s  ClockTime = 16 s

Time = 86

Courant Number mean: 0.00470655 max: 0.0502489 max Ndt = 0.0290635
DICPCG:  Solving for Exner, Initial residual = 1.75377e-05, Final residual = 1.51975e-08, No Iterations 16
DICPCG:  Solving for Exner, Initial residual = 4.22129e-08, Final residual = 9.11677e-11, No Iterations 15
DICPCG:  Solving for Exner, Initial residual = 4.2548e-06, Final residual = 3.18737e-09, No Iterations 16
DICPCG:  Solving for Exner, Initial residual = 7.06098e-09, Final residual = 6.68849e-11, No Iterations 12
time step continuity errors : sum local = 2.34711e-10, global = 9.35334e-12, cumulative = 5.19167e-10
Maximum rho difference fraction = 1.22879e-08
ExecutionTime = 16.91 s  ClockTime = 16 s

Time = 88

Courant Number mean: 0.00483342 max: 0.0513523 max Ndt = 0.0290558
DICPCG:  Solving for Exner, Initial residual = 1.45178e-05, Final residual = 1.39378e-08, No Iterations 16
DICPCG:  Solving for Exner, Initial residual = 4.38192e-08, Final residual = 9.91721e-11, No Iterations 15
DICPCG:  Solving for Exner, Initial residual = 3.63209e-06, Final residual = 2.70496e-09, No Iterations 16
DICPCG:  Solving for Exner, Initial residual = 9.67367e-09, Final residual = 7.86984e-11, No Iterations 12
time step continuity errors : sum local = 2.41339e-10, global = 7.74438e-12, cumulative = 5.26912e-10
Maximum rho difference fraction = 1.28993e-08
ExecutionTime = 17.3 s  ClockTime = 17 s

Time = 90

Courant Number mean: 0.00496846 max: 0.0524536 max Ndt = 0.0290484
DICPCG:  Solving for Exner, Initial residual = 1.46239e-05, Final residual = 1.45529e-08, No Iterations 16
DICPCG:  Solving for Exner, Initial residual = 4.49771e-08, Final residual = 6.84857e-11, No Iterations 16
DICPCG:  Solving for Exner, Initial residual = 3.87929e-06, Final residual = 2.8218e-09, No Iterations 16
DICPCG:  Solving for Exner, Initial residual = 9.11749e-09, Final residual = 7.32561e-11, No Iterations 12
time step continuity errors : sum local = 2.46984e-10, global = 6.65046e-12, cumulative = 5.33562e-10
Maximum rho difference fraction = 1.34373e-08
ExecutionTime = 17.68 s  ClockTime = 17 s

Time = 92

Courant Number mean: 0.00510909 max: 0.0535716 max Ndt = 0.0290414
DICPCG:  Solving for Exner, Initial residual = 1.63605e-05, Final residual = 1.32669e-08, No Iterations 16
DICPCG:  Solving for Exner, Initial residual = 4.60634e-08, Final residual = 9.55806e-11, No Iterations 15
DICPCG:  Solving for Exner, Initial residual = 3.99688e-06, Final residual = 2.69781e-09, No Iterations 16
DICPCG:  Solving for Exner, Initial residual = 6.03626e-09, Final residual = 8.16083e-11, No Iterations 11
time step continuity errors : sum local = 2.33683e-10, global = 5.66148e-12, cumulative = 5.39224e-10
Maximum rho difference fraction = 1.25326e-08
ExecutionTime = 18.08 s  ClockTime = 18 s

Time = 94

Courant Number mean: 0.0052519 max: 0.0547062 max Ndt = 0.0290345
DICPCG:  Solving for Exner, Initial residual = 1.65549e-05, Final residual = 1.23648e-08, No Iterations 16
DICPCG:  Solving for Exner, Initial residual = 4.77306e-08, Final residual = 9.91511e-11, No Iterations 15
DICPCG:  Solving for Exner, Initial residual = 3.83846e-06, Final residual = 2.56899e-09, No Iterations 16
DICPCG:  Solving for Exner, Initial residual = 5.66375e-09, Final residual = 9.4651e-11, No Iterations 11
time step continuity errors : sum local = 2.27562e-10, global = 4.55341e-12, cumulative = 5.43777e-10
Maximum rho difference fraction = 1.39404e-08
ExecutionTime = 18.46 s  ClockTime = 18 s

Time = 96

Courant Number mean: 0.00539016 max: 0.0558518 max Ndt = 0.0290275
DICPCG:  Solving for Exner, Initial residual = 1.52015e-05, Final residual = 1.49066e-08, No Iterations 15
DICPCG:  Solving for Exner, Initial residual = 4.90449e-08, Final residual = 6.9683e-11, No Iterations 16
DICPCG:  Solving for Exner, Initial residual = 3.68965e-06, Final residual = 3.59091e-09, No Iterations 15
DICPCG:  Solving for Exner, Initial residual = 8.63424e-09, Final residual = 8.8149e-11, No Iterations 12
time step continuity errors : sum local = 2.1848e-10, global = 3.36346e-12, cumulative = 5.47141e-10
Maximum rho difference fraction = 1.32583e-08
ExecutionTime = 18.84 s  ClockTime = 18 s

Time = 98

Courant Number mean: 0.00551944 max: 0.0570128 max Ndt = 0.02902
DICPCG:  Solving for Exner, Initial residual = 1.22781e-05, Final residual = 1.14301e-08, No Iterations 15
DICPCG:  Solving for Exner, Initial residual = 4.93665e-08, Final residual = 6.80907e-11, No Iterations 16
DICPCG:  Solving for Exner, Initial residual = 3.13997e-06, Final residual = 2.94875e-09, No Iterations 15
DICPCG:  Solving for Exner, Initial residual = 8.87339e-09, Final residual = 9.11628e-11, No Iterations 12
time step continuity errors : sum local = 2.12448e-10, global = 1.95729e-12, cumulative = 5.49098e-10
Maximum rho difference fraction = 1.25415e-08
ExecutionTime = 19.24 s  ClockTime = 19 s

Time = 100

Courant Number mean: 0.00563939 max: 0.0582142 max Ndt = 0.0290122
DICPCG:  Solving for Exner, Initial residual = 1.39633e-05, Final residual = 9.63573e-09, No Iterations 16
DICPCG:  Solving for Exner, Initial residual = 4.9201e-08, Final residual = 9.31105e-11, No Iterations 15
DICPCG:  Solving for Exner, Initial residual = 3.39466e-06, Final residual = 2.40195e-09, No Iterations 16
DICPCG:  Solving for Exner, Initial residual = 6.0806e-09, Final residual = 9.71625e-11, No Iterations 11
time step continuity errors : sum local = 2.1402e-10, global = 1.80186e-13, cumulative = 5.49278e-10
Maximum rho difference fraction = 1.40589e-08
ExecutionTime = 19.63 s  ClockTime = 19 s

Time = 102

Courant Number mean: 0.00575226 max: 0.0594758 max Ndt = 0.029004
DICPCG:  Solving for Exner, Initial residual = 1.6298e-05, Final residual = 1.20476e-08, No Iterations 16
DICPCG:  Solving for Exner, Initial residual = 5.01263e-08, Final residual = 9.76593e-11, No Iterations 15
DICPCG:  Solving for Exner, Initial residual = 3.9325e-06, Final residual = 2.71926e-09, No Iterations 16
DICPCG:  Solving for Exner, Initial residual = 4.65436e-09, Final residual = 8.82653e-11, No Iterations 10
time step continuity errors : sum local = 2.11871e-10, global = -1.65274e-12, cumulative = 5.47625e-10
Maximum rho difference fraction = 1.47227e-08
ExecutionTime = 20.02 s  ClockTime = 20 s

Time = 104

Courant Number mean: 0.00586084 max: 0.0607873 max Ndt = 0.0289959
DICPCG:  Solving for Exner, Initial residual = 1.45531e-05, Final residual = 1.04458e-08, No Iterations 16
DICPCG:  Solving for Exner, Initial residual = 5.16218e-08, Final residual = 7.14197e-11, No Iterations 16
DICPCG:  Solving for Exner, Initial residual = 3.3483e-06, Final residual = 2.38746e-09, No Iterations 16
DICPCG:  Solving for Exner, Initial residual = 6.84774e-09, Final residual = 8.39659e-11, No Iterations 11
time step continuity errors : sum local = 2.00754e-10, global = -3.21425e-12, cumulative = 5.44411e-10
Maximum rho difference fraction = 1.34275e-08
ExecutionTime = 20.42 s  ClockTime = 20 s

Time = 106

Courant Number mean: 0.00596709 max: 0.0621209 max Ndt = 0.0289879
DICPCG:  Solving for Exner, Initial residual = 1.26769e-05, Final residual = 1.06266e-08, No Iterations 16
DICPCG:  Solving for Exner, Initial residual = 5.25422e-08, Final residual = 7.53926e-11, No Iterations 16
DICPCG:  Solving for Exner, Initial residual = 3.10366e-06, Final residual = 2.30251e-09, No Iterations 16
DICPCG:  Solving for Exner, Initial residual = 7.59271e-09, Final residual = 9.78079e-11, No Iterations 11
time step continuity errors : sum local = 1.92597e-10, global = -4.91553e-12, cumulative = 5.39495e-10
Maximum rho difference fraction = 1.19177e-08
ExecutionTime = 20.81 s  ClockTime = 20 s

Time = 108

Courant Number mean: 0.00607334 max: 0.0634353 max Ndt = 0.0289799
DICPCG:  Solving for Exner, Initial residual = 1.40944e-05, Final residual = 1.0649e-08, No Iterations 16
DICPCG:  Solving for Exner, Initial residual = 5.35374e-08, Final residual = 7.42456e-11, No Iterations 16
DICPCG:  Solving for Exner, Initial residual = 3.71298e-06, Final residual = 3.20899e-09, No Iterations 15
DICPCG:  Solving for Exner, Initial residual = 6.17969e-09, Final residual = 8.48922e-11, No Iterations 11
time step continuity errors : sum local = 1.88509e-10, global = -6.87802e-12, cumulative = 5.32617e-10
Maximum rho difference fraction = 1.08978e-08
ExecutionTime = 21.2 s  ClockTime = 21 s

Time = 110

Courant Number mean: 0.00618192 max: 0.0646937 max Ndt = 0.0289716
DICPCG:  Solving for Exner, Initial residual = 1.37882e-05, Final residual = 9.47639e-09, No Iterations 16
DICPCG:  Solving for Exner, Initial residual = 5.45203e-08, Final residual = 7.27674e-11, No Iterations 16
DICPCG:  Solving for Exner, Initial residual = 3.29549e-06, Final residual = 2.82134e-09, No Iterations 15
DICPCG:  Solving for Exner, Initial residual = 5.09172e-09, Final residual = 7.24915e-11, No Iterations 11
time step continuity errors : sum local = 1.93806e-10, global = -9.04619e-12, cumulative = 5.23571e-10
Maximum rho difference fraction = 1.2526e-08
ExecutionTime = 21.6 s  ClockTime = 21 s

Time = 112

Courant Number mean: 0.00629341 max: 0.0658785 max Ndt = 0.0289627
DICPCG:  Solving for Exner, Initial residual = 1.30315e-05, Final residual = 1.00207e-08, No Iterations 16
DICPCG:  Solving for Exner, Initial residual = 5.48557e-08, Final residual = 7.2469e-11, No Iterations 16
DICPCG:  Solving for Exner, Initial residual = 3.10587e-06, Final residual = 3.07952e-09, No Iterations 15
DICPCG:  Solving for Exner, Initial residual = 5.40917e-09, Final residual = 7.77377e-11, No Iterations 11
time step continuity errors : sum local = 2.0326e-10, global = -1.11122e-11, cumulative = 5.12459e-10
Maximum rho difference fraction = 1.35619e-08
ExecutionTime = 22 s  ClockTime = 22 s

Time = 114

Courant Number mean: 0.00640772 max: 0.066999 max Ndt = 0.0289533
DICPCG:  Solving for Exner, Initial residual = 1.34305e-05, Final residual = 1.06468e-08, No Iterations 16
DICPCG:  Solving for Exner, Initial residual = 5.49052e-08, Final residual = 7.03014e-11, No Iterations 16
DICPCG:  Solving for Exner, Initial residual = 3.4898e-06, Final residual = 3.10263e-09, No Iterations 15
DICPCG:  Solving for Exner, Initial residual = 5.71558e-09, Final residual = 9.13332e-11, No Iterations 11
time step continuity errors : sum local = 2.09136e-10, global = -1.25963e-11, cumulative = 4.99863e-10
Maximum rho difference fraction = 1.48743e-08
ExecutionTime = 22.38 s  ClockTime = 22 s

Time = 116

Courant Number mean: 0.0065259 max: 0.0680891 max Ndt = 0.0289433
DICPCG:  Solving for Exner, Initial residual = 1.35628e-05, Final residual = 9.18993e-09, No Iterations 16
DICPCG:  Solving for Exner, Initial residual = 5.64498e-08, Final residual = 7.62771e-11, No Iterations 16
DICPCG:  Solving for Exner, Initial residual = 3.34548e-06, Final residual = 2.0916e-09, No Iterations 16
DICPCG:  Solving for Exner, Initial residual = 6.04274e-09, Final residual = 6.72158e-11, No Iterations 12
time step continuity errors : sum local = 2.05343e-10, global = -1.31724e-11, cumulative = 4.8669e-10
Maximum rho difference fraction = 1.40509e-08
ExecutionTime = 22.77 s  ClockTime = 22 s

Time = 118

Courant Number mean: 0.00664885 max: 0.0691967 max Ndt = 0.0289331
DICPCG:  Solving for Exner, Initial residual = 1.24924e-05, Final residual = 8.61976e-09, No Iterations 16
DICPCG:  Solving for Exner, Initial residual = 5.78556e-08, Final residual = 7.78139e-11, No Iterations 16
DICPCG:  Solving for Exner, Initial residual = 3.0633e-06, Final residual = 1.97526e-09, No Iterations 16
DICPCG:  Solving for Exner, Initial residual = 6.38731e-09, Final residual = 6.61145e-11, No Iterations 12
time step continuity errors : sum local = 2.01142e-10, global = -1.31114e-11, cumulative = 4.73579e-10
Maximum rho difference fraction = 1.31478e-08
ExecutionTime = 23.16 s  ClockTime = 23 s

Time = 120

Courant Number mean: 0.00677228 max: 0.0703646 max Ndt = 0.028923
DICPCG:  Solving for Exner, Initial residual = 1.23357e-05, Final residual = 8.9661e-09, No Iterations 16
DICPCG:  Solving for Exner, Initial residual = 5.88102e-08, Final residual = 7.92698e-11, No Iterations 16
DICPCG:  Solving for Exner, Initial residual = 3.23159e-06, Final residual = 2.13512e-09, No Iterations 16
DICPCG:  Solving for Exner, Initial residual = 6.37963e-09, Final residual = 9.91833e-11, No Iterations 11
time step continuity errors : sum local = 1.91243e-10, global = -1.24883e-11, cumulative = 4.61091e-10
Maximum rho difference fraction = 1.45798e-08
ExecutionTime = 23.55 s  ClockTime = 23 s

Time = 122

Courant Number mean: 0.00689438 max: 0.0716081 max Ndt = 0.0289133
DICPCG:  Solving for Exner, Initial residual = 1.32646e-05, Final residual = 1.24389e-08, No Iterations 15
DICPCG:  Solving for Exner, Initial residual = 5.92628e-08, Final residual = 8.13182e-11, No Iterations 16
DICPCG:  Solving for Exner, Initial residual = 3.38897e-06, Final residual = 2.19643e-09, No Iterations 16
DICPCG:  Solving for Exner, Initial residual = 6.5771e-09, Final residual = 9.69771e-11, No Iterations 11
time step continuity errors : sum local = 1.8822e-10, global = -1.17971e-11, cumulative = 4.49294e-10
Maximum rho difference fraction = 1.59035e-08
ExecutionTime = 23.94 s  ClockTime = 23 s

Time = 124

Courant Number mean: 0.00701665 max: 0.0729038 max Ndt = 0.0289038
DICPCG:  Solving for Exner, Initial residual = 1.23564e-05, Final residual = 1.22287e-08, No Iterations 15
DICPCG:  Solving for Exner, Initial residual = 5.98534e-08, Final residual = 8.17677e-11, No Iterations 16
DICPCG:  Solving for Exner, Initial residual = 3.20494e-06, Final residual = 2.89024e-09, No Iterations 15
DICPCG:  Solving for Exner, Initial residual = 6.54474e-09, Final residual = 9.53992e-11, No Iterations 11
time step continuity errors : sum local = 1.92551e-10, global = -1.1312e-11, cumulative = 4.37982e-10
Maximum rho difference fraction = 1.73091e-08
ExecutionTime = 24.33 s  ClockTime = 24 s

Time = 126

Courant Number mean: 0.00713865 max: 0.074201 max Ndt = 0.0288949
DICPCG:  Solving for Exner, Initial residual = 1.08403e-05, Final residual = 9.28448e-09, No Iterations 16
DICPCG:  Solving for Exner, Initial residual = 6.08785e-08, Final residual = 8.31411e-11, No Iterations 16
DICPCG:  Solving for Exner, Initial residual = 2.83241e-06, Final residual = 1.91249e-09, No Iterations 16
DICPCG:  Solving for Exner, Initial residual = 6.01813e-09, Final residual = 8.34359e-11, No Iterations 11
time step continuity errors : sum local = 2.00659e-10, global = -1.12601e-11, cumulative = 4.26721e-10
Maximum rho difference fraction = 1.85167e-08
ExecutionTime = 24.71 s  ClockTime = 24 s

Time = 128

Courant Number mean: 0.00725778 max: 0.0754521 max Ndt = 0.028887
DICPCG:  Solving for Exner, Initial residual = 1.17827e-05, Final residual = 1.04699e-08, No Iterations 16
DICPCG:  Solving for Exner, Initial residual = 6.17729e-08, Final residual = 7.98901e-11, No Iterations 16
DICPCG:  Solving for Exner, Initial residual = 2.93508e-06, Final residual = 2.04546e-09, No Iterations 16
DICPCG:  Solving for Exner, Initial residual = 4.08486e-09, Final residual = 7.63559e-11, No Iterations 10
time step continuity errors : sum local = 2.00406e-10, global = -1.16547e-11, cumulative = 4.15067e-10
Maximum rho difference fraction = 1.70613e-08
ExecutionTime = 25.1 s  ClockTime = 25 s

Time = 130

Courant Number mean: 0.00737343 max: 0.0766425 max Ndt = 0.0288784
DICPCG:  Solving for Exner, Initial residual = 1.34062e-05, Final residual = 1.01384e-08, No Iterations 16
DICPCG:  Solving for Exner, Initial residual = 6.36562e-08, Final residual = 8.47371e-11, No Iterations 16
DICPCG:  Solving for Exner, Initial residual = 3.01181e-06, Final residual = 2.04579e-09, No Iterations 16
DICPCG:  Solving for Exner, Initial residual = 4.55195e-09, Final residual = 8.01849e-11, No Iterations 10
time step continuity errors : sum local = 2.02814e-10, global = -1.21269e-11, cumulative = 4.0294e-10
Maximum rho difference fraction = 1.72065e-08
ExecutionTime = 25.48 s  ClockTime = 25 s

Time = 132

Courant Number mean: 0.00748704 max: 0.0777976 max Ndt = 0.0288691
DICPCG:  Solving for Exner, Initial residual = 1.19105e-05, Final residual = 9.43715e-09, No Iterations 16
DICPCG:  Solving for Exner, Initial residual = 6.46974e-08, Final residual = 8.92608e-11, No Iterations 16
DICPCG:  Solving for Exner, Initial residual = 2.65254e-06, Final residual = 1.82405e-09, No Iterations 16
DICPCG:  Solving for Exner, Initial residual = 6.14336e-09, Final residual = 7.96702e-11, No Iterations 11
time step continuity errors : sum local = 1.98226e-10, global = -1.25881e-11, cumulative = 3.90352e-10
Maximum rho difference fraction = 1.60903e-08
ExecutionTime = 25.87 s  ClockTime = 25 s

Time = 134

Courant Number mean: 0.00759914 max: 0.0789617 max Ndt = 0.0288595
DICPCG:  Solving for Exner, Initial residual = 1.01135e-05, Final residual = 9.25071e-09, No Iterations 16
DICPCG:  Solving for Exner, Initial residual = 6.4483e-08, Final residual = 8.6171e-11, No Iterations 16
DICPCG:  Solving for Exner, Initial residual = 2.62174e-06, Final residual = 1.86164e-09, No Iterations 16
DICPCG:  Solving for Exner, Initial residual = 6.0792e-09, Final residual = 8.15918e-11, No Iterations 11
time step continuity errors : sum local = 1.9645e-10, global = -1.30987e-11, cumulative = 3.77253e-10
Maximum rho difference fraction = 1.49194e-08
ExecutionTime = 26.26 s  ClockTime = 26 s

Time = 136

Courant Number mean: 0.00770911 max: 0.0801638 max Ndt = 0.02885
DICPCG:  Solving for Exner, Initial residual = 1.17303e-05, Final residual = 8.40716e-09, No Iterations 16
DICPCG:  Solving for Exner, Initial residual = 6.44338e-08, Final residual = 8.47195e-11, No Iterations 16
DICPCG:  Solving for Exner, Initial residual = 3.03907e-06, Final residual = 2.67451e-09, No Iterations 15
DICPCG:  Solving for Exner, Initial residual = 5.07136e-09, Final residual = 9.56115e-11, No Iterations 10
time step continuity errors : sum local = 1.99958e-10, global = -1.37605e-11, cumulative = 3.63493e-10
Maximum rho difference fraction = 1.67763e-08
ExecutionTime = 26.66 s  ClockTime = 26 s

Time = 138

Courant Number mean: 0.00781678 max: 0.0813991 max Ndt = 0.0288405
DICPCG:  Solving for Exner, Initial residual = 1.17574e-05, Final residual = 1.02619e-08, No Iterations 15
DICPCG:  Solving for Exner, Initial residual = 6.49789e-08, Final residual = 8.76478e-11, No Iterations 16
DICPCG:  Solving for Exner, Initial residual = 2.9178e-06, Final residual = 2.48455e-09, No Iterations 15
DICPCG:  Solving for Exner, Initial residual = 6.20557e-09, Final residual = 7.69003e-11, No Iterations 11
time step continuity errors : sum local = 2.02911e-10, global = -1.42501e-11, cumulative = 3.49242e-10
Maximum rho difference fraction = 1.58668e-08
ExecutionTime = 27.05 s  ClockTime = 27 s

Time = 140

Courant Number mean: 0.00792168 max: 0.0826375 max Ndt = 0.0288312
DICPCG:  Solving for Exner, Initial residual = 1.01889e-05, Final residual = 7.96523e-09, No Iterations 16
DICPCG:  Solving for Exner, Initial residual = 6.55207e-08, Final residual = 8.80743e-11, No Iterations 16
DICPCG:  Solving for Exner, Initial residual = 2.67835e-06, Final residual = 1.75621e-09, No Iterations 16
DICPCG:  Solving for Exner, Initial residual = 6.41704e-09, Final residual = 6.67682e-11, No Iterations 11
time step continuity errors : sum local = 2.0928e-10, global = -1.44521e-11, cumulative = 3.3479e-10
Maximum rho difference fraction = 1.68701e-08
ExecutionTime = 27.43 s  ClockTime = 27 s

Time = 142

Courant Number mean: 0.00802358 max: 0.0838511 max Ndt = 0.0288217
DICPCG:  Solving for Exner, Initial residual = 1.02954e-05, Final residual = 8.63145e-09, No Iterations 16
DICPCG:  Solving for Exner, Initial residual = 6.74116e-08, Final residual = 8.93537e-11, No Iterations 16
DICPCG:  Solving for Exner, Initial residual = 2.62939e-06, Final residual = 2.07131e-09, No Iterations 16
DICPCG:  Solving for Exner, Initial residual = 5.52598e-09, Final residual = 8.34969e-11, No Iterations 10
time step continuity errors : sum local = 2.03944e-10, global = -1.38749e-11, cumulative = 3.20915e-10
Maximum rho difference fraction = 1.46825e-08
ExecutionTime = 27.82 s  ClockTime = 27 s

Time = 144

Courant Number mean: 0.00812418 max: 0.0850379 max Ndt = 0.0288116
DICPCG:  Solving for Exner, Initial residual = 1.27686e-05, Final residual = 8.45434e-09, No Iterations 16
DICPCG:  Solving for Exner, Initial residual = 6.95295e-08, Final residual = 8.81892e-11, No Iterations 16
DICPCG:  Solving for Exner, Initial residual = 2.85119e-06, Final residual = 1.99833e-09, No Iterations 16
DICPCG:  Solving for Exner, Initial residual = 4.28587e-09, Final residual = 7.14792e-11, No Iterations 10
time step continuity errors : sum local = 2.02738e-10, global = -1.26278e-11, cumulative = 3.08288e-10
Maximum rho difference fraction = 1.34096e-08
ExecutionTime = 28.2 s  ClockTime = 28 s

Time = 146

Courant Number mean: 0.00822656 max: 0.0862225 max Ndt = 0.0288011
DICPCG:  Solving for Exner, Initial residual = 1.21066e-05, Final residual = 1.17694e-08, No Iterations 15
DICPCG:  Solving for Exner, Initial residual = 7.05443e-08, Final residual = 8.88337e-11, No Iterations 16
DICPCG:  Solving for Exner, Initial residual = 2.6253e-06, Final residual = 2.05943e-09, No Iterations 16
DICPCG:  Solving for Exner, Initial residual = 5.11771e-09, Final residual = 7.02727e-11, No Iterations 11
time step continuity errors : sum local = 2.01711e-10, global = -1.09727e-11, cumulative = 2.97315e-10
Maximum rho difference fraction = 1.43538e-08
ExecutionTime = 28.59 s  ClockTime = 28 s

Time = 148

Courant Number mean: 0.00833243 max: 0.087436 max Ndt = 0.0287902
DICPCG:  Solving for Exner, Initial residual = 9.97461e-06, Final residual = 8.51131e-09, No Iterations 16
DICPCG:  Solving for Exner, Initial residual = 7.06651e-08, Final residual = 9.13684e-11, No Iterations 16
DICPCG:  Solving for Exner, Initial residual = 2.56618e-06, Final residual = 2.12269e-09, No Iterations 16
DICPCG:  Solving for Exner, Initial residual = 6.69414e-09, Final residual = 9.22968e-11, No Iterations 11
time step continuity errors : sum local = 2.04582e-10, global = -8.77363e-12, cumulative = 2.88541e-10
Maximum rho difference fraction = 1.5729e-08
ExecutionTime = 28.98 s  ClockTime = 29 s

Time = 150

Courant Number mean: 0.00844161 max: 0.0886903 max Ndt = 0.0287794
DICPCG:  Solving for Exner, Initial residual = 9.51985e-06, Final residual = 8.65153e-09, No Iterations 15
DICPCG:  Solving for Exner, Initial residual = 7.12546e-08, Final residual = 9.68515e-11, No Iterations 16
DICPCG:  Solving for Exner, Initial residual = 2.82871e-06, Final residual = 1.89182e-09, No Iterations 16
DICPCG:  Solving for Exner, Initial residual = 7.2632e-09, Final residual = 9.39247e-11, No Iterations 11
time step continuity errors : sum local = 2.12143e-10, global = -6.64778e-12, cumulative = 2.81894e-10
Maximum rho difference fraction = 1.72405e-08
ExecutionTime = 29.37 s  ClockTime = 29 s

Time = 152

Courant Number mean: 0.00855343 max: 0.0899658 max Ndt = 0.0287687
DICPCG:  Solving for Exner, Initial residual = 1.02859e-05, Final residual = 8.68978e-09, No Iterations 15
DICPCG:  Solving for Exner, Initial residual = 7.15916e-08, Final residual = 9.75765e-11, No Iterations 16
DICPCG:  Solving for Exner, Initial residual = 2.73365e-06, Final residual = 2.68224e-09, No Iterations 15
DICPCG:  Solving for Exner, Initial residual = 6.7902e-09, Final residual = 8.30213e-11, No Iterations 11
time step continuity errors : sum local = 2.21727e-10, global = -5.13587e-12, cumulative = 2.76758e-10
Maximum rho difference fraction = 1.85818e-08
ExecutionTime = 29.75 s  ClockTime = 29 s

Time = 154

Courant Number mean: 0.00866881 max: 0.0912213 max Ndt = 0.0287582
DICPCG:  Solving for Exner, Initial residual = 1.02317e-05, Final residual = 6.78733e-09, No Iterations 16
DICPCG:  Solving for Exner, Initial residual = 7.17504e-08, Final residual = 9.65985e-11, No Iterations 16
DICPCG:  Solving for Exner, Initial residual = 2.39176e-06, Final residual = 1.68254e-09, No Iterations 16
DICPCG:  Solving for Exner, Initial residual = 4.99242e-09, Final residual = 8.303e-11, No Iterations 10
time step continuity errors : sum local = 2.2317e-10, global = -4.28873e-12, cumulative = 2.72469e-10
Maximum rho difference fraction = 1.6705e-08
ExecutionTime = 30.14 s  ClockTime = 30 s

Time = 156

Courant Number mean: 0.00878968 max: 0.0924192 max Ndt = 0.0287472
DICPCG:  Solving for Exner, Initial residual = 1.04139e-05, Final residual = 9.02971e-09, No Iterations 16
DICPCG:  Solving for Exner, Initial residual = 7.31477e-08, Final residual = 9.81504e-11, No Iterations 16
DICPCG:  Solving for Exner, Initial residual = 2.50022e-06, Final residual = 1.9281e-09, No Iterations 16
DICPCG:  Solving for Exner, Initial residual = 4.11374e-09, Final residual = 8.57982e-11, No Iterations 9
time step continuity errors : sum local = 2.22329e-10, global = -4.2455e-12, cumulative = 2.68223e-10
Maximum rho difference fraction = 1.88955e-08
ExecutionTime = 30.54 s  ClockTime = 30 s

Time = 158

Courant Number mean: 0.00891561 max: 0.0935492 max Ndt = 0.0287357
DICPCG:  Solving for Exner, Initial residual = 1.04388e-05, Final residual = 9.48222e-09, No Iterations 16
DICPCG:  Solving for Exner, Initial residual = 7.492e-08, Final residual = 6.74896e-11, No Iterations 17
DICPCG:  Solving for Exner, Initial residual = 2.61547e-06, Final residual = 1.87301e-09, No Iterations 16
DICPCG:  Solving for Exner, Initial residual = 5.83537e-09, Final residual = 8.23367e-11, No Iterations 10
time step continuity errors : sum local = 2.17833e-10, global = -4.28391e-12, cumulative = 2.6394e-10
Maximum rho difference fraction = 1.79057e-08
ExecutionTime = 30.92 s  ClockTime = 30 s

Time = 160

Courant Number mean: 0.00904441 max: 0.0946372 max Ndt = 0.0287233
DICPCG:  Solving for Exner, Initial residual = 9.07253e-06, Final residual = 7.68607e-09, No Iterations 16
DICPCG:  Solving for Exner, Initial residual = 7.53809e-08, Final residual = 6.71055e-11, No Iterations 17
DICPCG:  Solving for Exner, Initial residual = 2.22709e-06, Final residual = 1.57202e-09, No Iterations 16
DICPCG:  Solving for Exner, Initial residual = 6.3166e-09, Final residual = 6.80383e-11, No Iterations 11
time step continuity errors : sum local = 2.17997e-10, global = -3.93816e-12, cumulative = 2.60001e-10
Maximum rho difference fraction = 1.72154e-08
ExecutionTime = 31.31 s  ClockTime = 31 s

Time = 162

Courant Number mean: 0.00917456 max: 0.0957545 max Ndt = 0.0287105
DICPCG:  Solving for Exner, Initial residual = 8.77671e-06, Final residual = 7.0509e-09, No Iterations 16
DICPCG:  Solving for Exner, Initial residual = 7.52198e-08, Final residual = 6.64315e-11, No Iterations 17
DICPCG:  Solving for Exner, Initial residual = 2.28783e-06, Final residual = 1.93747e-09, No Iterations 15
DICPCG:  Solving for Exner, Initial residual = 5.69341e-09, Final residual = 7.29932e-11, No Iterations 11
time step continuity errors : sum local = 2.17717e-10, global = -3.01736e-12, cumulative = 2.56984e-10
Maximum rho difference fraction = 1.62913e-08
ExecutionTime = 31.7 s  ClockTime = 31 s

Time = 164

Courant Number mean: 0.00930482 max: 0.0969268 max Ndt = 0.0286994
DICPCG:  Solving for Exner, Initial residual = 9.51996e-06, Final residual = 9.31314e-09, No Iterations 15
DICPCG:  Solving for Exner, Initial residual = 7.59096e-08, Final residual = 9.80596e-11, No Iterations 16
DICPCG:  Solving for Exner, Initial residual = 2.54041e-06, Final residual = 1.6618e-09, No Iterations 16
DICPCG:  Solving for Exner, Initial residual = 4.78806e-09, Final residual = 9.81816e-11, No Iterations 10
time step continuity errors : sum local = 2.23795e-10, global = -1.38374e-12, cumulative = 2.556e-10
Maximum rho difference fraction = 1.78219e-08
ExecutionTime = 32.09 s  ClockTime = 32 s

Time = 166

Courant Number mean: 0.0094336 max: 0.0981575 max Ndt = 0.0286893
DICPCG:  Solving for Exner, Initial residual = 9.97492e-06, Final residual = 8.77287e-09, No Iterations 15
DICPCG:  Solving for Exner, Initial residual = 7.79184e-08, Final residual = 6.55885e-11, No Iterations 17
DICPCG:  Solving for Exner, Initial residual = 2.57552e-06, Final residual = 1.84479e-09, No Iterations 16
DICPCG:  Solving for Exner, Initial residual = 4.85351e-09, Final residual = 6.60014e-11, No Iterations 11
time step continuity errors : sum local = 2.23081e-10, global = -1.08759e-14, cumulative = 2.55589e-10
Maximum rho difference fraction = 1.70041e-08
ExecutionTime = 32.46 s  ClockTime = 32 s

Time = 168

Courant Number mean: 0.00955887 max: 0.0994243 max Ndt = 0.0286794
DICPCG:  Solving for Exner, Initial residual = 9.02386e-06, Final residual = 8.44398e-09, No Iterations 15
DICPCG:  Solving for Exner, Initial residual = 7.93551e-08, Final residual = 6.76433e-11, No Iterations 17
DICPCG:  Solving for Exner, Initial residual = 2.18815e-06, Final residual = 1.68429e-09, No Iterations 16
DICPCG:  Solving for Exner, Initial residual = 4.642e-09, Final residual = 6.68802e-11, No Iterations 11
time step continuity errors : sum local = 2.24989e-10, global = 1.24207e-12, cumulative = 2.56831e-10
Maximum rho difference fraction = 1.64183e-08
ExecutionTime = 32.85 s  ClockTime = 32 s

Time = 170

Courant Number mean: 0.00967953 max: 0.100688 max Ndt = 0.0286696
DICPCG:  Solving for Exner, Initial residual = 8.60573e-06, Final residual = 5.90789e-09, No Iterations 16
DICPCG:  Solving for Exner, Initial residual = 7.97682e-08, Final residual = 6.66634e-11, No Iterations 17
DICPCG:  Solving for Exner, Initial residual = 2.16142e-06, Final residual = 1.45693e-09, No Iterations 16
DICPCG:  Solving for Exner, Initial residual = 4.14182e-09, Final residual = 8.1442e-11, No Iterations 10
time step continuity errors : sum local = 2.27968e-10, global = 2.5208e-12, cumulative = 2.59352e-10
Maximum rho difference fraction = 1.53431e-08
ExecutionTime = 33.26 s  ClockTime = 33 s

Time = 172

Courant Number mean: 0.00979618 max: 0.101918 max Ndt = 0.0286594
DICPCG:  Solving for Exner, Initial residual = 8.62591e-06, Final residual = 6.96124e-09, No Iterations 16
DICPCG:  Solving for Exner, Initial residual = 8.02437e-08, Final residual = 6.68599e-11, No Iterations 17
DICPCG:  Solving for Exner, Initial residual = 2.26532e-06, Final residual = 2.13166e-09, No Iterations 15
DICPCG:  Solving for Exner, Initial residual = 4.26338e-09, Final residual = 7.42874e-11, No Iterations 10
time step continuity errors : sum local = 2.29432e-10, global = 3.57097e-12, cumulative = 2.62923e-10
Maximum rho difference fraction = 1.33765e-08
ExecutionTime = 33.65 s  ClockTime = 33 s

Time = 174

Courant Number mean: 0.00991046 max: 0.103108 max Ndt = 0.0286484
DICPCG:  Solving for Exner, Initial residual = 8.69598e-06, Final residual = 7.29957e-09, No Iterations 16
DICPCG:  Solving for Exner, Initial residual = 8.06783e-08, Final residual = 6.80968e-11, No Iterations 17
DICPCG:  Solving for Exner, Initial residual = 2.19466e-06, Final residual = 2.11447e-09, No Iterations 15
DICPCG:  Solving for Exner, Initial residual = 4.66209e-09, Final residual = 8.24952e-11, No Iterations 10
time step continuity errors : sum local = 2.33862e-10, global = 4.48393e-12, cumulative = 2.67407e-10
Maximum rho difference fraction = 1.16571e-08
ExecutionTime = 34.03 s  ClockTime = 34 s

Time = 176

Courant Number mean: 0.0100243 max: 0.104279 max Ndt = 0.0286366
DICPCG:  Solving for Exner, Initial residual = 8.56591e-06, Final residual = 6.28195e-09, No Iterations 16
DICPCG:  Solving for Exner, Initial residual = 8.08602e-08, Final residual = 6.65998e-11, No Iterations 17
DICPCG:  Solving for Exner, Initial residual = 2.12261e-06, Final residual = 1.98633e-09, No Iterations 15
DICPCG:  Solving for Exner, Initial residual = 4.20095e-09, Final residual = 8.65559e-11, No Iterations 10
time step continuity errors : sum local = 2.4167e-10, global = 5.45672e-12, cumulative = 2.72864e-10
Maximum rho difference fraction = 1.01068e-08
ExecutionTime = 34.42 s  ClockTime = 34 s

Time = 178

Courant Number mean: 0.0101391 max: 0.105455 max Ndt = 0.0286244
DICPCG:  Solving for Exner, Initial residual = 8.46581e-06, Final residual = 6.63436e-09, No Iterations 16
DICPCG:  Solving for Exner, Initial residual = 8.18157e-08, Final residual = 6.86584e-11, No Iterations 17
DICPCG:  Solving for Exner, Initial residual = 2.22264e-06, Final residual = 2.05458e-09, No Iterations 15
DICPCG:  Solving for Exner, Initial residual = 4.8132e-09, Final residual = 7.38403e-11, No Iterations 11
time step continuity errors : sum local = 2.43349e-10, global = 6.41049e-12, cumulative = 2.79274e-10
Maximum rho difference fraction = 1.12484e-08
ExecutionTime = 34.8 s  ClockTime = 34 s

Time = 180

Courant Number mean: 0.0102549 max: 0.106655 max Ndt = 0.0286121
DICPCG:  Solving for Exner, Initial residual = 8.05348e-06, Final residual = 7.1165e-09, No Iterations 16
DICPCG:  Solving for Exner, Initial residual = 8.37276e-08, Final residual = 7.12665e-11, No Iterations 17
DICPCG:  Solving for Exner, Initial residual = 2.3126e-06, Final residual = 1.6068e-09, No Iterations 16
DICPCG:  Solving for Exner, Initial residual = 5.28549e-09, Final residual = 7.37155e-11, No Iterations 11
time step continuity errors : sum local = 2.49293e-10, global = 7.32778e-12, cumulative = 2.86602e-10
Maximum rho difference fraction = 1.30788e-08
ExecutionTime = 35.19 s  ClockTime = 35 s

Time = 182

Courant Number mean: 0.0103714 max: 0.107877 max Ndt = 0.0286
DICPCG:  Solving for Exner, Initial residual = 8.18045e-06, Final residual = 6.33994e-09, No Iterations 16
DICPCG:  Solving for Exner, Initial residual = 8.53183e-08, Final residual = 7.28787e-11, No Iterations 17
DICPCG:  Solving for Exner, Initial residual = 2.16743e-06, Final residual = 1.66482e-09, No Iterations 16
DICPCG:  Solving for Exner, Initial residual = 4.81493e-09, Final residual = 9.08489e-11, No Iterations 10
time step continuity errors : sum local = 2.54863e-10, global = 7.99567e-12, cumulative = 2.94598e-10
Maximum rho difference fraction = 1.09507e-08
ExecutionTime = 35.57 s  ClockTime = 35 s

Time = 184

Courant Number mean: 0.010489 max: 0.109111 max Ndt = 0.028588
DICPCG:  Solving for Exner, Initial residual = 8.85189e-06, Final residual = 8.04088e-09, No Iterations 15
DICPCG:  Solving for Exner, Initial residual = 8.62303e-08, Final residual = 7.35605e-11, No Iterations 17
DICPCG:  Solving for Exner, Initial residual = 2.08117e-06, Final residual = 1.60114e-09, No Iterations 16
DICPCG:  Solving for Exner, Initial residual = 4.32363e-09, Final residual = 8.13077e-11, No Iterations 10
time step continuity errors : sum local = 2.63721e-10, global = 8.02589e-12, cumulative = 3.02624e-10
Maximum rho difference fraction = 1.10754e-08
ExecutionTime = 35.97 s  ClockTime = 36 s

Time = 186

Courant Number mean: 0.0106084 max: 0.110346 max Ndt = 0.0285761
DICPCG:  Solving for Exner, Initial residual = 8.27914e-06, Final residual = 7.5889e-09, No Iterations 15
DICPCG:  Solving for Exner, Initial residual = 8.67198e-08, Final residual = 7.33279e-11, No Iterations 17
DICPCG:  Solving for Exner, Initial residual = 2.21093e-06, Final residual = 1.6879e-09, No Iterations 16
DICPCG:  Solving for Exner, Initial residual = 5.14534e-09, Final residual = 8.79192e-11, No Iterations 10
time step continuity errors : sum local = 2.71939e-10, global = 7.2454e-12, cumulative = 3.09869e-10
Maximum rho difference fraction = 1.21012e-08
ExecutionTime = 36.36 s  ClockTime = 36 s

Time = 188

Courant Number mean: 0.0107307 max: 0.111572 max Ndt = 0.028564
DICPCG:  Solving for Exner, Initial residual = 7.64518e-06, Final residual = 7.32813e-09, No Iterations 15
DICPCG:  Solving for Exner, Initial residual = 8.74686e-08, Final residual = 7.55914e-11, No Iterations 17
DICPCG:  Solving for Exner, Initial residual = 2.30413e-06, Final residual = 1.46974e-09, No Iterations 16
DICPCG:  Solving for Exner, Initial residual = 6.2687e-09, Final residual = 9.72483e-11, No Iterations 10
time step continuity errors : sum local = 2.82093e-10, global = 6.17381e-12, cumulative = 3.16043e-10
Maximum rho difference fraction = 1.35889e-08
ExecutionTime = 36.74 s  ClockTime = 36 s

Time = 190

Courant Number mean: 0.0108575 max: 0.112776 max Ndt = 0.0285514
DICPCG:  Solving for Exner, Initial residual = 7.65181e-06, Final residual = 6.01378e-09, No Iterations 16
DICPCG:  Solving for Exner, Initial residual = 8.78096e-08, Final residual = 7.52383e-11, No Iterations 17
DICPCG:  Solving for Exner, Initial residual = 2.32084e-06, Final residual = 1.88742e-09, No Iterations 15
DICPCG:  Solving for Exner, Initial residual = 5.92074e-09, Final residual = 8.88946e-11, No Iterations 10
time step continuity errors : sum local = 2.93315e-10, global = 5.52489e-12, cumulative = 3.21568e-10
Maximum rho difference fraction = 1.52676e-08
ExecutionTime = 37.12 s  ClockTime = 37 s

Time = 192

Courant Number mean: 0.0109894 max: 0.113946 max Ndt = 0.0285399
DICPCG:  Solving for Exner, Initial residual = 8.70251e-06, Final residual = 7.07503e-09, No Iterations 16
DICPCG:  Solving for Exner, Initial residual = 8.81256e-08, Final residual = 7.42275e-11, No Iterations 17
DICPCG:  Solving for Exner, Initial residual = 2.26817e-06, Final residual = 1.51385e-09, No Iterations 16
DICPCG:  Solving for Exner, Initial residual = 4.20162e-09, Final residual = 9.61916e-11, No Iterations 9
time step continuity errors : sum local = 2.98281e-10, global = 5.63063e-12, cumulative = 3.27198e-10
Maximum rho difference fraction = 1.38634e-08
ExecutionTime = 37.5 s  ClockTime = 37 s

Time = 194

Courant Number mean: 0.011126 max: 0.115073 max Ndt = 0.0285283
DICPCG:  Solving for Exner, Initial residual = 8.52023e-06, Final residual = 7.7327e-09, No Iterations 16
DICPCG:  Solving for Exner, Initial residual = 8.89714e-08, Final residual = 7.54805e-11, No Iterations 17
DICPCG:  Solving for Exner, Initial residual = 2.20316e-06, Final residual = 1.69041e-09, No Iterations 16
DICPCG:  Solving for Exner, Initial residual = 3.94098e-09, Final residual = 9.96647e-11, No Iterations 9
time step continuity errors : sum local = 3.03508e-10, global = 6.47281e-12, cumulative = 3.33671e-10
Maximum rho difference fraction = 1.45605e-08
ExecutionTime = 37.89 s  ClockTime = 37 s

Time = 196

Courant Number mean: 0.011266 max: 0.116165 max Ndt = 0.0285163
DICPCG:  Solving for Exner, Initial residual = 7.9114e-06, Final residual = 7.6323e-09, No Iterations 16
DICPCG:  Solving for Exner, Initial residual = 9.04422e-08, Final residual = 7.75615e-11, No Iterations 17
DICPCG:  Solving for Exner, Initial residual = 2.14982e-06, Final residual = 1.40957e-09, No Iterations 16
DICPCG:  Solving for Exner, Initial residual = 5.12055e-09, Final residual = 8.60573e-11, No Iterations 10
time step continuity errors : sum local = 3.0621e-10, global = 7.61731e-12, cumulative = 3.41289e-10
Maximum rho difference fraction = 1.28154e-08
ExecutionTime = 38.28 s  ClockTime = 38 s

Time = 198

Courant Number mean: 0.0114068 max: 0.117244 max Ndt = 0.0285041
DICPCG:  Solving for Exner, Initial residual = 7.45079e-06, Final residual = 7.27784e-09, No Iterations 16
DICPCG:  Solving for Exner, Initial residual = 9.15977e-08, Final residual = 7.76828e-11, No Iterations 17
DICPCG:  Solving for Exner, Initial residual = 2.14694e-06, Final residual = 1.85605e-09, No Iterations 15
DICPCG:  Solving for Exner, Initial residual = 5.55714e-09, Final residual = 6.74057e-11, No Iterations 11
time step continuity errors : sum local = 3.10517e-10, global = 8.52932e-12, cumulative = 3.49818e-10
Maximum rho difference fraction = 1.37314e-08
ExecutionTime = 38.66 s  ClockTime = 38 s

Time = 200

Courant Number mean: 0.0115457 max: 0.118343 max Ndt = 0.0284919
DICPCG:  Solving for Exner, Initial residual = 7.31012e-06, Final residual = 6.70235e-09, No Iterations 16
DICPCG:  Solving for Exner, Initial residual = 9.25052e-08, Final residual = 7.69981e-11, No Iterations 17
DICPCG:  Solving for Exner, Initial residual = 2.19669e-06, Final residual = 2.18045e-09, No Iterations 15
DICPCG:  Solving for Exner, Initial residual = 4.94579e-09, Final residual = 6.58812e-11, No Iterations 11
time step continuity errors : sum local = 3.16321e-10, global = 9.10039e-12, cumulative = 3.58918e-10
Maximum rho difference fraction = 1.47476e-08
ExecutionTime = 39.07 s  ClockTime = 39 s

Time = 202

Courant Number mean: 0.0116814 max: 0.119479 max Ndt = 0.02848
DICPCG:  Solving for Exner, Initial residual = 7.70724e-06, Final residual = 6.57507e-09, No Iterations 16
DICPCG:  Solving for Exner, Initial residual = 9.36924e-08, Final residual = 7.69075e-11, No Iterations 17
DICPCG:  Solving for Exner, Initial residual = 2.24615e-06, Final residual = 1.71324e-09, No Iterations 16
DICPCG:  Solving for Exner, Initial residual = 4.18273e-09, Final residual = 8.87483e-11, No Iterations 10
time step continuity errors : sum local = 3.23614e-10, global = 9.18173e-12, cumulative = 3.681e-10
Maximum rho difference fraction = 1.30634e-08
ExecutionTime = 39.47 s  ClockTime = 39 s

Time = 204

Courant Number mean: 0.0118137 max: 0.12065 max Ndt = 0.0284681
DICPCG:  Solving for Exner, Initial residual = 7.14487e-06, Final residual = 6.19145e-09, No Iterations 16
DICPCG:  Solving for Exner, Initial residual = 9.44362e-08, Final residual = 8.0565e-11, No Iterations 17
DICPCG:  Solving for Exner, Initial residual = 2.06733e-06, Final residual = 1.6762e-09, No Iterations 16
DICPCG:  Solving for Exner, Initial residual = 4.19693e-09, Final residual = 8.13098e-11, No Iterations 10
time step continuity errors : sum local = 3.29516e-10, global = 8.90767e-12, cumulative = 3.77008e-10
Maximum rho difference fraction = 1.19388e-08
ExecutionTime = 39.86 s  ClockTime = 39 s

Time = 206

Courant Number mean: 0.0119432 max: 0.121838 max Ndt = 0.028456
DICPCG:  Solving for Exner, Initial residual = 7.0495e-06, Final residual = 5.59657e-09, No Iterations 16
DICPCG:  Solving for Exner, Initial residual = 9.50871e-08, Final residual = 8.01388e-11, No Iterations 17
DICPCG:  Solving for Exner, Initial residual = 2.00539e-06, Final residual = 1.61581e-09, No Iterations 16
DICPCG:  Solving for Exner, Initial residual = 4.81629e-09, Final residual = 8.64121e-11, No Iterations 10
time step continuity errors : sum local = 3.37303e-10, global = 8.22547e-12, cumulative = 3.85233e-10
Maximum rho difference fraction = 1.37245e-08
ExecutionTime = 40.25 s  ClockTime = 40 s

Time = 208

Courant Number mean: 0.0120711 max: 0.123049 max Ndt = 0.0284435
DICPCG:  Solving for Exner, Initial residual = 6.93013e-06, Final residual = 5.31145e-09, No Iterations 16
DICPCG:  Solving for Exner, Initial residual = 9.58954e-08, Final residual = 7.8684e-11, No Iterations 17
DICPCG:  Solving for Exner, Initial residual = 1.99007e-06, Final residual = 1.5321e-09, No Iterations 16
DICPCG:  Solving for Exner, Initial residual = 4.82743e-09, Final residual = 7.978e-11, No Iterations 10
time step continuity errors : sum local = 3.45484e-10, global = 7.37282e-12, cumulative = 3.92606e-10
Maximum rho difference fraction = 1.55077e-08
ExecutionTime = 40.63 s  ClockTime = 40 s

Time = 210

Courant Number mean: 0.012198 max: 0.124256 max Ndt = 0.0284304
DICPCG:  Solving for Exner, Initial residual = 7.1614e-06, Final residual = 5.4953e-09, No Iterations 16
DICPCG:  Solving for Exner, Initial residual = 9.68116e-08, Final residual = 7.97918e-11, No Iterations 17
DICPCG:  Solving for Exner, Initial residual = 2.0827e-06, Final residual = 1.56836e-09, No Iterations 16
DICPCG:  Solving for Exner, Initial residual = 4.68525e-09, Final residual = 8.47729e-11, No Iterations 10
time step continuity errors : sum local = 3.55008e-10, global = 6.55885e-12, cumulative = 3.99165e-10
Maximum rho difference fraction = 1.73113e-08
ExecutionTime = 41.04 s  ClockTime = 41 s

Time = 212

Courant Number mean: 0.012324 max: 0.125447 max Ndt = 0.0284168
DICPCG:  Solving for Exner, Initial residual = 6.66443e-06, Final residual = 5.67824e-09, No Iterations 16
DICPCG:  Solving for Exner, Initial residual = 9.78416e-08, Final residual = 8.13996e-11, No Iterations 17
DICPCG:  Solving for Exner, Initial residual = 1.94806e-06, Final residual = 1.48907e-09, No Iterations 16
DICPCG:  Solving for Exner, Initial residual = 4.73534e-09, Final residual = 7.62813e-11, No Iterations 10
time step continuity errors : sum local = 3.63851e-10, global = 5.74197e-12, cumulative = 4.04907e-10
Maximum rho difference fraction = 1.86774e-08
ExecutionTime = 41.43 s  ClockTime = 41 s

Time = 214

Courant Number mean: 0.0124495 max: 0.126628 max Ndt = 0.0284038
DICPCG:  Solving for Exner, Initial residual = 6.53229e-06, Final residual = 5.54903e-09, No Iterations 16
DICPCG:  Solving for Exner, Initial residual = 9.8793e-08, Final residual = 8.25675e-11, No Iterations 17
DICPCG:  Solving for Exner, Initial residual = 1.90513e-06, Final residual = 1.47795e-09, No Iterations 16
DICPCG:  Solving for Exner, Initial residual = 4.99066e-09, Final residual = 7.28071e-11, No Iterations 10
time step continuity errors : sum local = 3.73492e-10, global = 4.74667e-12, cumulative = 4.09653e-10
Maximum rho difference fraction = 1.76014e-08
ExecutionTime = 41.84 s  ClockTime = 41 s

Time = 216

Courant Number mean: 0.0125749 max: 0.127802 max Ndt = 0.0283921
DICPCG:  Solving for Exner, Initial residual = 7.08019e-06, Final residual = 6.14005e-09, No Iterations 16
DICPCG:  Solving for Exner, Initial residual = 9.95907e-08, Final residual = 8.16306e-11, No Iterations 17
DICPCG:  Solving for Exner, Initial residual = 1.91257e-06, Final residual = 1.65784e-09, No Iterations 16
DICPCG:  Solving for Exner, Initial residual = 4.97923e-09, Final residual = 6.99182e-11, No Iterations 10
time step continuity errors : sum local = 3.81588e-10, global = 3.59052e-12, cumulative = 4.13244e-10
Maximum rho difference fraction = 1.65781e-08
ExecutionTime = 42.23 s  ClockTime = 42 s

Time = 218

Courant Number mean: 0.0127007 max: 0.128971 max Ndt = 0.0283804
DICPCG:  Solving for Exner, Initial residual = 7.858e-06, Final residual = 6.66201e-09, No Iterations 16
DICPCG:  Solving for Exner, Initial residual = 1.00798e-07, Final residual = 8.2675e-11, No Iterations 17
DICPCG:  Solving for Exner, Initial residual = 2.11842e-06, Final residual = 1.79836e-09, No Iterations 16
DICPCG:  Solving for Exner, Initial residual = 4.52662e-09, Final residual = 7.03301e-11, No Iterations 10
time step continuity errors : sum local = 3.88101e-10, global = 2.5878e-12, cumulative = 4.15832e-10
Maximum rho difference fraction = 1.54581e-08
ExecutionTime = 42.64 s  ClockTime = 42 s

Time = 220

Courant Number mean: 0.0128284 max: 0.130137 max Ndt = 0.0283685
DICPCG:  Solving for Exner, Initial residual = 7.07623e-06, Final residual = 5.89488e-09, No Iterations 16
DICPCG:  Solving for Exner, Initial residual = 1.02025e-07, Final residual = 8.37633e-11, No Iterations 17
DICPCG:  Solving for Exner, Initial residual = 1.94928e-06, Final residual = 1.58342e-09, No Iterations 16
DICPCG:  Solving for Exner, Initial residual = 4.81559e-09, Final residual = 7.00217e-11, No Iterations 10
time step continuity errors : sum local = 3.9193e-10, global = 1.88763e-12, cumulative = 4.17719e-10
Maximum rho difference fraction = 1.4091e-08
ExecutionTime = 43.04 s  ClockTime = 43 s

Time = 222

Courant Number mean: 0.0129595 max: 0.131298 max Ndt = 0.0283563
DICPCG:  Solving for Exner, Initial residual = 5.75875e-06, Final residual = 4.55706e-09, No Iterations 16
DICPCG:  Solving for Exner, Initial residual = 1.02941e-07, Final residual = 8.44168e-11, No Iterations 17
DICPCG:  Solving for Exner, Initial residual = 1.7483e-06, Final residual = 1.24774e-09, No Iterations 16
DICPCG:  Solving for Exner, Initial residual = 5.48037e-09, Final residual = 7.87366e-11, No Iterations 10
time step continuity errors : sum local = 3.94143e-10, global = 1.56775e-12, cumulative = 4.19287e-10
Maximum rho difference fraction = 1.24713e-08
ExecutionTime = 43.43 s  ClockTime = 43 s

Time = 224

Courant Number mean: 0.013095 max: 0.132456 max Ndt = 0.0283436
DICPCG:  Solving for Exner, Initial residual = 6.18476e-06, Final residual = 4.55431e-09, No Iterations 16
DICPCG:  Solving for Exner, Initial residual = 1.03633e-07, Final residual = 8.11279e-11, No Iterations 17
DICPCG:  Solving for Exner, Initial residual = 1.95039e-06, Final residual = 1.28621e-09, No Iterations 16
DICPCG:  Solving for Exner, Initial residual = 5.38886e-09, Final residual = 8.51041e-11, No Iterations 10
time step continuity errors : sum local = 3.92867e-10, global = 1.54695e-12, cumulative = 4.20834e-10
Maximum rho difference fraction = 1.09315e-08
ExecutionTime = 43.83 s  ClockTime = 43 s

Time = 226

Courant Number mean: 0.0132347 max: 0.133606 max Ndt = 0.0283305
DICPCG:  Solving for Exner, Initial residual = 7.14116e-06, Final residual = 5.12707e-09, No Iterations 16
DICPCG:  Solving for Exner, Initial residual = 1.04598e-07, Final residual = 8.3258e-11, No Iterations 17
DICPCG:  Solving for Exner, Initial residual = 2.07737e-06, Final residual = 1.55752e-09, No Iterations 16
DICPCG:  Solving for Exner, Initial residual = 4.57604e-09, Final residual = 6.79441e-11, No Iterations 10
[...]
DICPCG:  Solving for Exner, Initial residual = 9.13484e-06, Final residual = 6.9526e-09, No Iterations 12
DICPCG:  Solving for Exner, Initial residual = 3.54538e-08, Final residual = 5.93729e-11, No Iterations 11
time step continuity errors : sum local = 1.4284e-09, global = 1.88029e-11, cumulative = 8.33079e-10
Maximum rho difference fraction = 3.78357e-07
ExecutionTime = 183.08 s  ClockTime = 183 s

Time = 946

Courant Number mean: 0.0772504 max: 0.373495 max Ndt = 0.0347723
DICPCG:  Solving for Exner, Initial residual = 1.10618e-05, Final residual = 8.23219e-09, No Iterations 13
DICPCG:  Solving for Exner, Initial residual = 1.47325e-06, Final residual = 1.04154e-09, No Iterations 16
DICPCG:  Solving for Exner, Initial residual = 9.1292e-06, Final residual = 6.50073e-09, No Iterations 12
DICPCG:  Solving for Exner, Initial residual = 3.54823e-08, Final residual = 5.8817e-11, No Iterations 11
time step continuity errors : sum local = 1.42978e-09, global = 1.87255e-11, cumulative = 8.51804e-10
Maximum rho difference fraction = 3.78875e-07
ExecutionTime = 183.47 s  ClockTime = 183 s

Time = 948

Courant Number mean: 0.0774063 max: 0.373286 max Ndt = 0.0347469
DICPCG:  Solving for Exner, Initial residual = 1.10304e-05, Final residual = 8.11802e-09, No Iterations 13
DICPCG:  Solving for Exner, Initial residual = 1.47611e-06, Final residual = 1.04038e-09, No Iterations 16
DICPCG:  Solving for Exner, Initial residual = 9.0795e-06, Final residual = 6.55157e-09, No Iterations 12
DICPCG:  Solving for Exner, Initial residual = 3.54639e-08, Final residual = 9.95295e-11, No Iterations 10
time step continuity errors : sum local = 1.43215e-09, global = 1.91079e-11, cumulative = 8.70912e-10
Maximum rho difference fraction = 3.77705e-07
ExecutionTime = 183.85 s  ClockTime = 183 s

Time = 950

Courant Number mean: 0.0775655 max: 0.372929 max Ndt = 0.0347052
DICPCG:  Solving for Exner, Initial residual = 1.11444e-05, Final residual = 8.50978e-09, No Iterations 13
DICPCG:  Solving for Exner, Initial residual = 1.47675e-06, Final residual = 1.03893e-09, No Iterations 16
DICPCG:  Solving for Exner, Initial residual = 9.06486e-06, Final residual = 6.84326e-09, No Iterations 12
DICPCG:  Solving for Exner, Initial residual = 3.5435e-08, Final residual = 9.75245e-11, No Iterations 10
time step continuity errors : sum local = 1.43556e-09, global = 1.94467e-11, cumulative = 8.90359e-10
Maximum rho difference fraction = 3.76569e-07
ExecutionTime = 184.23 s  ClockTime = 184 s

Time = 952

Courant Number mean: 0.0777255 max: 0.372427 max Ndt = 0.0346471
DICPCG:  Solving for Exner, Initial residual = 1.1164e-05, Final residual = 8.80387e-09, No Iterations 13
DICPCG:  Solving for Exner, Initial residual = 1.48143e-06, Final residual = 1.03798e-09, No Iterations 16
DICPCG:  Solving for Exner, Initial residual = 9.05087e-06, Final residual = 6.73023e-09, No Iterations 12
DICPCG:  Solving for Exner, Initial residual = 3.53057e-08, Final residual = 9.53009e-11, No Iterations 10
time step continuity errors : sum local = 1.44e-09, global = 1.97716e-11, cumulative = 9.1013e-10
Maximum rho difference fraction = 3.7546e-07
ExecutionTime = 184.62 s  ClockTime = 184 s

Time = 954

Courant Number mean: 0.0778849 max: 0.371784 max Ndt = 0.0345724
DICPCG:  Solving for Exner, Initial residual = 1.1067e-05, Final residual = 8.4069e-09, No Iterations 13
DICPCG:  Solving for Exner, Initial residual = 1.48605e-06, Final residual = 1.03757e-09, No Iterations 16
DICPCG:  Solving for Exner, Initial residual = 9.04405e-06, Final residual = 6.37175e-09, No Iterations 12
DICPCG:  Solving for Exner, Initial residual = 3.51864e-08, Final residual = 9.45528e-11, No Iterations 10
time step continuity errors : sum local = 1.44535e-09, global = 2.01072e-11, cumulative = 9.30238e-10
Maximum rho difference fraction = 3.74355e-07
ExecutionTime = 185.01 s  ClockTime = 185 s

Time = 956

Courant Number mean: 0.0780452 max: 0.371005 max Ndt = 0.0345445
DICPCG:  Solving for Exner, Initial residual = 1.09798e-05, Final residual = 8.02281e-09, No Iterations 13
DICPCG:  Solving for Exner, Initial residual = 1.49363e-06, Final residual = 1.03744e-09, No Iterations 16
DICPCG:  Solving for Exner, Initial residual = 9.0477e-06, Final residual = 6.4482e-09, No Iterations 12
DICPCG:  Solving for Exner, Initial residual = 3.51608e-08, Final residual = 9.5475e-11, No Iterations 10
time step continuity errors : sum local = 1.45155e-09, global = 2.04559e-11, cumulative = 9.50693e-10
Maximum rho difference fraction = 3.73234e-07
ExecutionTime = 185.4 s  ClockTime = 185 s

Time = 958

Courant Number mean: 0.0782056 max: 0.370094 max Ndt = 0.0345925
DICPCG:  Solving for Exner, Initial residual = 1.10891e-05, Final residual = 8.60507e-09, No Iterations 13
DICPCG:  Solving for Exner, Initial residual = 1.50074e-06, Final residual = 1.03807e-09, No Iterations 16
DICPCG:  Solving for Exner, Initial residual = 9.09519e-06, Final residual = 6.80003e-09, No Iterations 12
DICPCG:  Solving for Exner, Initial residual = 3.5209e-08, Final residual = 9.64196e-11, No Iterations 10
time step continuity errors : sum local = 1.45864e-09, global = 2.07947e-11, cumulative = 9.71488e-10
Maximum rho difference fraction = 3.72094e-07
ExecutionTime = 185.79 s  ClockTime = 185 s

Time = 960

Courant Number mean: 0.0783648 max: 0.369059 max Ndt = 0.0346322
DICPCG:  Solving for Exner, Initial residual = 1.10847e-05, Final residual = 8.90285e-09, No Iterations 13
DICPCG:  Solving for Exner, Initial residual = 1.50529e-06, Final residual = 1.03875e-09, No Iterations 16
DICPCG:  Solving for Exner, Initial residual = 9.14165e-06, Final residual = 6.74978e-09, No Iterations 12
DICPCG:  Solving for Exner, Initial residual = 3.52197e-08, Final residual = 9.52844e-11, No Iterations 10
time step continuity errors : sum local = 1.46618e-09, global = 2.10927e-11, cumulative = 9.92581e-10
Maximum rho difference fraction = 3.70954e-07
ExecutionTime = 186.18 s  ClockTime = 186 s

Time = 962

Courant Number mean: 0.0785226 max: 0.369156 max Ndt = 0.0346631
DICPCG:  Solving for Exner, Initial residual = 1.09491e-05, Final residual = 8.38226e-09, No Iterations 13
DICPCG:  Solving for Exner, Initial residual = 1.50702e-06, Final residual = 1.03853e-09, No Iterations 16
DICPCG:  Solving for Exner, Initial residual = 9.11406e-06, Final residual = 6.27888e-09, No Iterations 12
DICPCG:  Solving for Exner, Initial residual = 3.51298e-08, Final residual = 9.23001e-11, No Iterations 10
time step continuity errors : sum local = 1.47406e-09, global = 2.13343e-11, cumulative = 1.01392e-09
Maximum rho difference fraction = 3.69845e-07
ExecutionTime = 186.56 s  ClockTime = 186 s

Time = 964

Courant Number mean: 0.0786799 max: 0.369229 max Ndt = 0.0346849
DICPCG:  Solving for Exner, Initial residual = 1.0901e-05, Final residual = 7.99047e-09, No Iterations 13
DICPCG:  Solving for Exner, Initial residual = 1.5086e-06, Final residual = 1.03856e-09, No Iterations 16
DICPCG:  Solving for Exner, Initial residual = 9.0914e-06, Final residual = 5.99624e-09, No Iterations 12
DICPCG:  Solving for Exner, Initial residual = 3.50754e-08, Final residual = 8.98072e-11, No Iterations 10
time step continuity errors : sum local = 1.48206e-09, global = 2.15252e-11, cumulative = 1.03544e-09
Maximum rho difference fraction = 3.68779e-07
ExecutionTime = 186.93 s  ClockTime = 187 s

Time = 966

Courant Number mean: 0.0788378 max: 0.369167 max Ndt = 0.0346971
DICPCG:  Solving for Exner, Initial residual = 1.11377e-05, Final residual = 8.52952e-09, No Iterations 13
DICPCG:  Solving for Exner, Initial residual = 1.51124e-06, Final residual = 1.03877e-09, No Iterations 16
DICPCG:  Solving for Exner, Initial residual = 9.10619e-06, Final residual = 6.38266e-09, No Iterations 12
DICPCG:  Solving for Exner, Initial residual = 3.5019e-08, Final residual = 8.8717e-11, No Iterations 10
time step continuity errors : sum local = 1.4899e-09, global = 2.16878e-11, cumulative = 1.05713e-09
Maximum rho difference fraction = 3.67749e-07
ExecutionTime = 187.31 s  ClockTime = 187 s

Time = 968

Courant Number mean: 0.0789963 max: 0.369144 max Ndt = 0.0346992
DICPCG:  Solving for Exner, Initial residual = 1.11945e-05, Final residual = 8.64769e-09, No Iterations 13
DICPCG:  Solving for Exner, Initial residual = 1.5131e-06, Final residual = 1.03893e-09, No Iterations 16
DICPCG:  Solving for Exner, Initial residual = 9.12126e-06, Final residual = 6.46171e-09, No Iterations 12
DICPCG:  Solving for Exner, Initial residual = 3.50612e-08, Final residual = 8.73263e-11, No Iterations 10
time step continuity errors : sum local = 1.49737e-09, global = 2.18516e-11, cumulative = 1.07898e-09
Maximum rho difference fraction = 3.66744e-07
ExecutionTime = 187.69 s  ClockTime = 187 s

Time = 970

Courant Number mean: 0.0791535 max: 0.36906 max Ndt = 0.0346908
DICPCG:  Solving for Exner, Initial residual = 1.10565e-05, Final residual = 7.90745e-09, No Iterations 13
DICPCG:  Solving for Exner, Initial residual = 1.51414e-06, Final residual = 1.03917e-09, No Iterations 16
DICPCG:  Solving for Exner, Initial residual = 9.10762e-06, Final residual = 6.15759e-09, No Iterations 12
DICPCG:  Solving for Exner, Initial residual = 3.5046e-08, Final residual = 8.59557e-11, No Iterations 10
time step continuity errors : sum local = 1.50449e-09, global = 2.20268e-11, cumulative = 1.10101e-09
Maximum rho difference fraction = 3.65746e-07
ExecutionTime = 188.08 s  ClockTime = 188 s

Time = 972

Courant Number mean: 0.0793081 max: 0.36882 max Ndt = 0.0346714
DICPCG:  Solving for Exner, Initial residual = 1.10234e-05, Final residual = 7.78909e-09, No Iterations 13
DICPCG:  Solving for Exner, Initial residual = 1.51502e-06, Final residual = 1.03966e-09, No Iterations 16
DICPCG:  Solving for Exner, Initial residual = 9.10005e-06, Final residual = 6.12675e-09, No Iterations 12
DICPCG:  Solving for Exner, Initial residual = 3.50385e-08, Final residual = 8.71449e-11, No Iterations 10
time step continuity errors : sum local = 1.51143e-09, global = 2.21872e-11, cumulative = 1.12319e-09
Maximum rho difference fraction = 3.64727e-07
ExecutionTime = 188.45 s  ClockTime = 188 s

Time = 974

Courant Number mean: 0.0794627 max: 0.368429 max Ndt = 0.0346911
DICPCG:  Solving for Exner, Initial residual = 1.11891e-05, Final residual = 8.23308e-09, No Iterations 13
DICPCG:  Solving for Exner, Initial residual = 1.51386e-06, Final residual = 1.03991e-09, No Iterations 16
DICPCG:  Solving for Exner, Initial residual = 9.10073e-06, Final residual = 6.49735e-09, No Iterations 12
DICPCG:  Solving for Exner, Initial residual = 3.50677e-08, Final residual = 8.92991e-11, No Iterations 10
time step continuity errors : sum local = 1.51829e-09, global = 2.23013e-11, cumulative = 1.1455e-09
Maximum rho difference fraction = 3.63686e-07
ExecutionTime = 188.83 s  ClockTime = 188 s

Time = 976

Courant Number mean: 0.0796174 max: 0.367891 max Ndt = 0.0347205
DICPCG:  Solving for Exner, Initial residual = 1.12149e-05, Final residual = 8.08053e-09, No Iterations 13
DICPCG:  Solving for Exner, Initial residual = 1.51229e-06, Final residual = 1.04045e-09, No Iterations 16
DICPCG:  Solving for Exner, Initial residual = 9.07457e-06, Final residual = 6.53608e-09, No Iterations 12
DICPCG:  Solving for Exner, Initial residual = 3.49482e-08, Final residual = 8.81518e-11, No Iterations 10
time step continuity errors : sum local = 1.52476e-09, global = 2.23636e-11, cumulative = 1.16786e-09
Maximum rho difference fraction = 3.62661e-07
ExecutionTime = 189.21 s  ClockTime = 189 s

Time = 978

Courant Number mean: 0.0797737 max: 0.367212 max Ndt = 0.0347358
DICPCG:  Solving for Exner, Initial residual = 1.10754e-05, Final residual = 7.35413e-09, No Iterations 13
DICPCG:  Solving for Exner, Initial residual = 1.51253e-06, Final residual = 1.04077e-09, No Iterations 16
DICPCG:  Solving for Exner, Initial residual = 9.02539e-06, Final residual = 6.12508e-09, No Iterations 12
DICPCG:  Solving for Exner, Initial residual = 3.48261e-08, Final residual = 8.4241e-11, No Iterations 10
time step continuity errors : sum local = 1.53051e-09, global = 2.23867e-11, cumulative = 1.19025e-09
Maximum rho difference fraction = 3.61686e-07
ExecutionTime = 189.6 s  ClockTime = 189 s

Time = 980

Courant Number mean: 0.0799311 max: 0.366395 max Ndt = 0.0347368
DICPCG:  Solving for Exner, Initial residual = 1.11041e-05, Final residual = 7.67276e-09, No Iterations 13
DICPCG:  Solving for Exner, Initial residual = 1.51653e-06, Final residual = 1.04071e-09, No Iterations 16
DICPCG:  Solving for Exner, Initial residual = 9.02632e-06, Final residual = 5.73459e-09, No Iterations 12
DICPCG:  Solving for Exner, Initial residual = 3.48466e-08, Final residual = 8.17793e-11, No Iterations 10
time step continuity errors : sum local = 1.53543e-09, global = 2.23827e-11, cumulative = 1.21263e-09
Maximum rho difference fraction = 3.60756e-07
ExecutionTime = 189.99 s  ClockTime = 190 s

Time = 982

Courant Number mean: 0.0800895 max: 0.365445 max Ndt = 0.0347234
DICPCG:  Solving for Exner, Initial residual = 1.12048e-05, Final residual = 8.44409e-09, No Iterations 13
DICPCG:  Solving for Exner, Initial residual = 1.51817e-06, Final residual = 1.04025e-09, No Iterations 16
DICPCG:  Solving for Exner, Initial residual = 9.03769e-06, Final residual = 6.03215e-09, No Iterations 12
DICPCG:  Solving for Exner, Initial residual = 3.49137e-08, Final residual = 8.15304e-11, No Iterations 10
time step continuity errors : sum local = 1.53966e-09, global = 2.23647e-11, cumulative = 1.23499e-09
Maximum rho difference fraction = 3.59849e-07
ExecutionTime = 190.38 s  ClockTime = 190 s

Time = 984

Courant Number mean: 0.0802497 max: 0.365187 max Ndt = 0.0346954
DICPCG:  Solving for Exner, Initial residual = 1.11687e-05, Final residual = 8.47764e-09, No Iterations 13
DICPCG:  Solving for Exner, Initial residual = 1.52281e-06, Final residual = 1.0396e-09, No Iterations 16
DICPCG:  Solving for Exner, Initial residual = 9.00625e-06, Final residual = 6.21483e-09, No Iterations 12
DICPCG:  Solving for Exner, Initial residual = 3.49171e-08, Final residual = 8.12859e-11, No Iterations 10
time step continuity errors : sum local = 1.54312e-09, global = 2.23404e-11, cumulative = 1.25733e-09
Maximum rho difference fraction = 3.58944e-07
ExecutionTime = 190.76 s  ClockTime = 190 s

Time = 986

Courant Number mean: 0.0804086 max: 0.365547 max Ndt = 0.0346526
DICPCG:  Solving for Exner, Initial residual = 1.09986e-05, Final residual = 7.86234e-09, No Iterations 13
DICPCG:  Solving for Exner, Initial residual = 1.52578e-06, Final residual = 1.03951e-09, No Iterations 16
DICPCG:  Solving for Exner, Initial residual = 8.97297e-06, Final residual = 6.03668e-09, No Iterations 12
DICPCG:  Solving for Exner, Initial residual = 3.48516e-08, Final residual = 8.10356e-11, No Iterations 10
time step continuity errors : sum local = 1.54585e-09, global = 2.23011e-11, cumulative = 1.27963e-09
Maximum rho difference fraction = 3.58029e-07
ExecutionTime = 191.14 s  ClockTime = 191 s

Time = 988

Courant Number mean: 0.0805679 max: 0.365759 max Ndt = 0.034595
DICPCG:  Solving for Exner, Initial residual = 1.10084e-05, Final residual = 8.12043e-09, No Iterations 13
DICPCG:  Solving for Exner, Initial residual = 1.53188e-06, Final residual = 1.03943e-09, No Iterations 16
DICPCG:  Solving for Exner, Initial residual = 8.95869e-06, Final residual = 5.91038e-09, No Iterations 12
DICPCG:  Solving for Exner, Initial residual = 3.4769e-08, Final residual = 8.17064e-11, No Iterations 10
time step continuity errors : sum local = 1.54801e-09, global = 2.22265e-11, cumulative = 1.30186e-09
Maximum rho difference fraction = 3.57102e-07
ExecutionTime = 191.52 s  ClockTime = 191 s

Time = 990

Courant Number mean: 0.0807243 max: 0.365826 max Ndt = 0.0345225
DICPCG:  Solving for Exner, Initial residual = 1.10828e-05, Final residual = 8.25661e-09, No Iterations 13
DICPCG:  Solving for Exner, Initial residual = 1.53625e-06, Final residual = 1.03851e-09, No Iterations 16
DICPCG:  Solving for Exner, Initial residual = 8.95796e-06, Final residual = 6.23436e-09, No Iterations 12
DICPCG:  Solving for Exner, Initial residual = 3.46582e-08, Final residual = 8.23167e-11, No Iterations 10
time step continuity errors : sum local = 1.54979e-09, global = 2.21082e-11, cumulative = 1.32397e-09
Maximum rho difference fraction = 3.5618e-07
ExecutionTime = 191.9 s  ClockTime = 191 s

Time = 992

Courant Number mean: 0.0808818 max: 0.365748 max Ndt = 0.0344548
DICPCG:  Solving for Exner, Initial residual = 1.10823e-05, Final residual = 8.03258e-09, No Iterations 13
DICPCG:  Solving for Exner, Initial residual = 1.54029e-06, Final residual = 1.03756e-09, No Iterations 16
DICPCG:  Solving for Exner, Initial residual = 8.97251e-06, Final residual = 6.40577e-09, No Iterations 12
DICPCG:  Solving for Exner, Initial residual = 3.46111e-08, Final residual = 8.13366e-11, No Iterations 10
time step continuity errors : sum local = 1.55124e-09, global = 2.19495e-11, cumulative = 1.34592e-09
Maximum rho difference fraction = 3.55277e-07
ExecutionTime = 192.28 s  ClockTime = 192 s

Time = 994

Courant Number mean: 0.0810387 max: 0.36553 max Ndt = 0.0344948
DICPCG:  Solving for Exner, Initial residual = 1.09831e-05, Final residual = 7.92425e-09, No Iterations 13
DICPCG:  Solving for Exner, Initial residual = 1.54569e-06, Final residual = 1.03681e-09, No Iterations 16
DICPCG:  Solving for Exner, Initial residual = 8.98005e-06, Final residual = 6.1641e-09, No Iterations 12
DICPCG:  Solving for Exner, Initial residual = 3.45906e-08, Final residual = 7.89668e-11, No Iterations 10
time step continuity errors : sum local = 1.55227e-09, global = 2.1766e-11, cumulative = 1.36768e-09
Maximum rho difference fraction = 3.54402e-07
ExecutionTime = 192.66 s  ClockTime = 192 s

Time = 996

Courant Number mean: 0.0811953 max: 0.365173 max Ndt = 0.0345278
DICPCG:  Solving for Exner, Initial residual = 1.10195e-05, Final residual = 8.07243e-09, No Iterations 13
DICPCG:  Solving for Exner, Initial residual = 1.55021e-06, Final residual = 1.03716e-09, No Iterations 16
DICPCG:  Solving for Exner, Initial residual = 9.03542e-06, Final residual = 5.70709e-09, No Iterations 12
DICPCG:  Solving for Exner, Initial residual = 3.46321e-08, Final residual = 7.66898e-11, No Iterations 10
time step continuity errors : sum local = 1.55265e-09, global = 2.15797e-11, cumulative = 1.38926e-09
Maximum rho difference fraction = 3.53557e-07
ExecutionTime = 193.05 s  ClockTime = 193 s

Time = 998

Courant Number mean: 0.0813505 max: 0.364683 max Ndt = 0.0345532
DICPCG:  Solving for Exner, Initial residual = 1.10444e-05, Final residual = 8.01192e-09, No Iterations 13
DICPCG:  Solving for Exner, Initial residual = 1.55467e-06, Final residual = 1.03682e-09, No Iterations 16
DICPCG:  Solving for Exner, Initial residual = 9.02638e-06, Final residual = 5.84738e-09, No Iterations 12
DICPCG:  Solving for Exner, Initial residual = 3.46021e-08, Final residual = 7.66673e-11, No Iterations 10
time step continuity errors : sum local = 1.55249e-09, global = 2.13852e-11, cumulative = 1.41065e-09
Maximum rho difference fraction = 3.52708e-07
ExecutionTime = 193.42 s  ClockTime = 193 s

Time = 1000

Courant Number mean: 0.0815046 max: 0.364064 max Ndt = 0.0345705
DICPCG:  Solving for Exner, Initial residual = 1.10558e-05, Final residual = 7.69559e-09, No Iterations 13
DICPCG:  Solving for Exner, Initial residual = 1.55773e-06, Final residual = 1.03625e-09, No Iterations 16
DICPCG:  Solving for Exner, Initial residual = 9.01104e-06, Final residual = 6.13737e-09, No Iterations 12
DICPCG:  Solving for Exner, Initial residual = 3.4527e-08, Final residual = 7.85745e-11, No Iterations 10
time step continuity errors : sum local = 1.55207e-09, global = 2.11526e-11, cumulative = 1.4318e-09
Maximum rho difference fraction = 3.51812e-07
ExecutionTime = 193.8 s  ClockTime = 193 s

End

