/*---------------------------------------------------------------------------*\
| =========                 |                                                 |
| \\      /  F ield         | OpenFOAM: The Open Source CFD Toolbox           |
|  \\    /   O peration     | Version:  dev                                   |
|   \\  /    A nd           | Web:      www.OpenFOAM.org                      |
|    \\/     M anipulation  |                                                 |
\*---------------------------------------------------------------------------*/
Build  : dev-c1b380c8677a
Exec   : exnerFoamTurbulence
Date   : May 12 2018
Time   : 10:45:29
Host   : "daniel-XPS-15-9560"
PID    : 16325
I/O    : uncollated
Case   : /home/daniel/OpenFOAM/daniel-dev/run/danCases/exnerFoamTurbulence/standard
nProcs : 1
sigFpe : Enabling floating point exception trapping (FOAM_SIGFPE).
fileModificationChecking : Monitoring run-time modified files using timeStampMaster (fileModificationSkew 10)
allowSystemOperations : Allowing user-supplied system call operations

// * * * * * * * * * * * * * * * * * * * * * * * * * * * * * * * * * * * * * //
Create time

Create mesh for time = 0


Reading environmentalProperties
Reading thermophysical properties

Cp = 1005 speedSound = speedSound [0 1 -1 0 0 0 0] 347.745 kappa = kappa [0 0 0 0 0 0 0] 0.286267 R = 287.698 RR = 8314.47 Cv = Cv [0 2 -2 -1 0 0 0] 717.302
Maximum acousitic Courant number = ((max(deltaCoeffs)*deltaT)*speedSound) [0 0 0 0 0 0 0] 13.9098
Making the boundary faces orthogonal
Reading thermophysical properties

Selecting thermodynamics package 
{
    type            hePsiThermo;
    energy          sensibleInternalEnergy;
    specie          specie;
    equationOfState perfectGas;
    thermo          hConst;
    transport       const;
    mixture         pureMixture;
}

Reading field Uf

Reading field Exner

Reading field theta

Maximum sponge value = 0
Creating field rho

Calculating face flux field phi

Creating turbulence model

Selecting turbulence model type laminar
Selecting laminar stress model Stokes
Initialising total energy file energy.dat

KE dimensions = [1 -1 -2 0 0 0 0]
internalEnergy dimensions = [1 -1 -2 0 0 0 0]
potentialEnergy dimensions = [1 -1 -2 0 0 0 0]
Vtot = sum(V) [0 3 0 0 0 0 0] 4e+11
KEInitTot = (domainIntegrate(KE)|sum(V)) [1 -1 -2 0 0 0 0] 0
internalInitTot = (domainIntegrate(internalEnergy)|sum(V)) [1 -1 -2 0 0 0 0] 84513.4
potentialInitTot = (domainIntegrate(potentialEnergy)|sum(V)) [1 -1 -2 0 0 0 0] 31359.8

Starting time loop

Time = 2

Courant Number mean: 0 max: 0 max Ndt = 0.0142514
diagonal:  Solving for rho, Initial residual = 0, Final residual = 0, No Iterations 0
DICPBiCGStab:  Solving for theta, Initial residual = 1.76338e-13, Final residual = 1.76338e-13, No Iterations 0
DICPCG:  Solving for Exner, Initial residual = 4.63612e-06, Final residual = 3.2432e-09, No Iterations 18
DICPCG:  Solving for Exner, Initial residual = 3.39476e-09, Final residual = 6.75254e-11, No Iterations 10
diagonal:  Solving for rho, Initial residual = 0, Final residual = 0, No Iterations 0
DICPBiCGStab:  Solving for theta, Initial residual = 1.7721e-05, Final residual = 3.88224e-21, No Iterations 1
DICPCG:  Solving for Exner, Initial residual = 2.16627e-06, Final residual = 1.53099e-09, No Iterations 16
DICPCG:  Solving for Exner, Initial residual = 1.55587e-09, Final residual = 9.81081e-11, No Iterations 7
diagonal:  Solving for rho, Initial residual = 0, Final residual = 0, No Iterations 0
DICPBiCGStab:  Solving for theta, Initial residual = 8.77843e-07, Final residual = 5.81663e-22, No Iterations 1
time step continuity errors : sum local = 4.33238e-11, global = 1.2878e-11, cumulative = 1.2878e-11
Maximum rho difference fraction = 8.07539e-10
Heat error = 1.03536e-14
ExecutionTime = 1.65 s  ClockTime = 2 s

Time = 4

Courant Number mean: 2.72321e-05 max: 0.00230705 max Ndt = 0.014252
diagonal:  Solving for rho, Initial residual = 0, Final residual = 0, No Iterations 0
DICPBiCGStab:  Solving for theta, Initial residual = 3.52884e-05, Final residual = 1.51172e-21, No Iterations 1
DICPCG:  Solving for Exner, Initial residual = 6.36705e-06, Final residual = 4.30672e-09, No Iterations 17
DICPCG:  Solving for Exner, Initial residual = 4.60509e-09, Final residual = 9.23412e-11, No Iterations 10
diagonal:  Solving for rho, Initial residual = 0, Final residual = 0, No Iterations 0
DICPBiCGStab:  Solving for theta, Initial residual = 1.83684e-05, Final residual = 8.69948e-22, No Iterations 1
DICPCG:  Solving for Exner, Initial residual = 1.40031e-06, Final residual = 1.25113e-09, No Iterations 16
DICPCG:  Solving for Exner, Initial residual = 1.25718e-09, Final residual = 8.12268e-11, No Iterations 7
diagonal:  Solving for rho, Initial residual = 0, Final residual = 0, No Iterations 0
DICPBiCGStab:  Solving for theta, Initial residual = 4.15276e-07, Final residual = 1.82995e-22, No Iterations 1
time step continuity errors : sum local = 5.14885e-11, global = 2.19289e-11, cumulative = 3.48069e-11
Maximum rho difference fraction = 3.74618e-09
Heat error = -7.60138e-15
ExecutionTime = 2.93 s  ClockTime = 3 s

Time = 6

Courant Number mean: 6.20082e-05 max: 0.00394445 max Ndt = 0.0142535
diagonal:  Solving for rho, Initial residual = 0, Final residual = 0, No Iterations 0
DICPBiCGStab:  Solving for theta, Initial residual = 7.28467e-05, Final residual = 2.91114e-21, No Iterations 1
DICPCG:  Solving for Exner, Initial residual = 6.66254e-06, Final residual = 5.34538e-09, No Iterations 16
DICPCG:  Solving for Exner, Initial residual = 5.56284e-09, Final residual = 6.94911e-11, No Iterations 11
diagonal:  Solving for rho, Initial residual = 0, Final residual = 0, No Iterations 0
DICPBiCGStab:  Solving for theta, Initial residual = 1.73931e-05, Final residual = 7.84421e-22, No Iterations 1
DICPCG:  Solving for Exner, Initial residual = 2.10743e-06, Final residual = 1.90008e-09, No Iterations 15
DICPCG:  Solving for Exner, Initial residual = 2.00275e-09, Final residual = 8.77183e-11, No Iterations 8
diagonal:  Solving for rho, Initial residual = 0, Final residual = 0, No Iterations 0
DICPBiCGStab:  Solving for theta, Initial residual = 7.79212e-07, Final residual = 3.41421e-22, No Iterations 1
time step continuity errors : sum local = 7.04108e-11, global = 3.29576e-11, cumulative = 6.77646e-11
Maximum rho difference fraction = 7.87315e-09
Heat error = -8.12561e-15
ExecutionTime = 4.21 s  ClockTime = 5 s

Time = 8

Courant Number mean: 0.000108165 max: 0.00497376 max Ndt = 0.0142554
diagonal:  Solving for rho, Initial residual = 0, Final residual = 0, No Iterations 0
DICPBiCGStab:  Solving for theta, Initial residual = 0.000108597, Final residual = 4.33735e-21, No Iterations 1
DICPCG:  Solving for Exner, Initial residual = 7.63713e-06, Final residual = 5.80185e-09, No Iterations 16
DICPCG:  Solving for Exner, Initial residual = 6.29349e-09, Final residual = 8.20877e-11, No Iterations 11
diagonal:  Solving for rho, Initial residual = 0, Final residual = 0, No Iterations 0
DICPBiCGStab:  Solving for theta, Initial residual = 1.48373e-05, Final residual = 6.15423e-22, No Iterations 1
DICPCG:  Solving for Exner, Initial residual = 2.76221e-06, Final residual = 2.10692e-09, No Iterations 15
DICPCG:  Solving for Exner, Initial residual = 2.15886e-09, Final residual = 9.87193e-11, No Iterations 8
diagonal:  Solving for rho, Initial residual = 0, Final residual = 0, No Iterations 0
DICPBiCGStab:  Solving for theta, Initial residual = 6.1986e-07, Final residual = 3.50603e-22, No Iterations 1
time step continuity errors : sum local = 9.36667e-11, global = 4.43507e-11, cumulative = 1.12115e-10
Maximum rho difference fraction = 5.59315e-09
Heat error = -4.06281e-15
ExecutionTime = 5.49 s  ClockTime = 6 s

Time = 10

Courant Number mean: 0.00016669 max: 0.00581214 max Ndt = 0.0142573
diagonal:  Solving for rho, Initial residual = 0, Final residual = 0, No Iterations 0
DICPBiCGStab:  Solving for theta, Initial residual = 0.000138404, Final residual = 2.79941e-20, No Iterations 1
DICPCG:  Solving for Exner, Initial residual = 9.32879e-06, Final residual = 7.21487e-09, No Iterations 16
DICPCG:  Solving for Exner, Initial residual = 7.75151e-09, Final residual = 9.50528e-11, No Iterations 11
diagonal:  Solving for rho, Initial residual = 0, Final residual = 0, No Iterations 0
DICPBiCGStab:  Solving for theta, Initial residual = 1.21254e-05, Final residual = 1.91663e-21, No Iterations 1
DICPCG:  Solving for Exner, Initial residual = 2.94096e-06, Final residual = 2.37716e-09, No Iterations 15
DICPCG:  Solving for Exner, Initial residual = 2.46202e-09, Final residual = 7.13805e-11, No Iterations 9
diagonal:  Solving for rho, Initial residual = 0, Final residual = 0, No Iterations 0
DICPBiCGStab:  Solving for theta, Initial residual = 4.74461e-07, Final residual = 7.93353e-23, No Iterations 1
time step continuity errors : sum local = 1.02084e-10, global = 5.27179e-11, cumulative = 1.64833e-10
Maximum rho difference fraction = 8.87911e-09
Heat error = -9.96043e-15
ExecutionTime = 6.76 s  ClockTime = 7 s

Time = 12

Courant Number mean: 0.000235188 max: 0.0067969 max Ndt = 0.0142593
diagonal:  Solving for rho, Initial residual = 0, Final residual = 0, No Iterations 0
DICPBiCGStab:  Solving for theta, Initial residual = 0.00016174, Final residual = 6.84144e-21, No Iterations 1
DICPCG:  Solving for Exner, Initial residual = 1.03289e-05, Final residual = 7.81457e-09, No Iterations 16
DICPCG:  Solving for Exner, Initial residual = 9.06074e-09, Final residual = 8.10179e-11, No Iterations 12
diagonal:  Solving for rho, Initial residual = 0, Final residual = 0, No Iterations 0
DICPBiCGStab:  Solving for theta, Initial residual = 1.09337e-05, Final residual = 2.31527e-21, No Iterations 1
DICPCG:  Solving for Exner, Initial residual = 3.04432e-06, Final residual = 2.23081e-09, No Iterations 15
DICPCG:  Solving for Exner, Initial residual = 2.4011e-09, Final residual = 6.61845e-11, No Iterations 9
diagonal:  Solving for rho, Initial residual = 0, Final residual = 0, No Iterations 0
DICPBiCGStab:  Solving for theta, Initial residual = 6.01497e-07, Final residual = 2.09391e-22, No Iterations 1
time step continuity errors : sum local = 1.13005e-10, global = 6.06395e-11, cumulative = 2.25473e-10
Maximum rho difference fraction = 1.21307e-08
Heat error = -9.69831e-15
ExecutionTime = 8.03 s  ClockTime = 8 s

Time = 14

Courant Number mean: 0.000309756 max: 0.00802723 max Ndt = 0.0142618
diagonal:  Solving for rho, Initial residual = 0, Final residual = 0, No Iterations 0
DICPBiCGStab:  Solving for theta, Initial residual = 0.000182414, Final residual = 2.79406e-20, No Iterations 1
DICPCG:  Solving for Exner, Initial residual = 1.09862e-05, Final residual = 8.22765e-09, No Iterations 16
DICPCG:  Solving for Exner, Initial residual = 9.94936e-09, Final residual = 7.98836e-11, No Iterations 12
diagonal:  Solving for rho, Initial residual = 0, Final residual = 0, No Iterations 0
DICPBiCGStab:  Solving for theta, Initial residual = 1.15428e-05, Final residual = 5.29574e-22, No Iterations 1
DICPCG:  Solving for Exner, Initial residual = 3.04955e-06, Final residual = 2.18283e-09, No Iterations 15
DICPCG:  Solving for Exner, Initial residual = 2.22821e-09, Final residual = 6.41626e-11, No Iterations 9
diagonal:  Solving for rho, Initial residual = 0, Final residual = 0, No Iterations 0
DICPBiCGStab:  Solving for theta, Initial residual = 3.88773e-07, Final residual = 8.2293e-23, No Iterations 1
time step continuity errors : sum local = 1.22525e-10, global = 6.30558e-11, cumulative = 2.88528e-10
Maximum rho difference fraction = 1.33407e-08
Heat error = -3.93175e-15
ExecutionTime = 9.3 s  ClockTime = 10 s

Time = 16

Courant Number mean: 0.000386561 max: 0.00938229 max Ndt = 0.0142649
diagonal:  Solving for rho, Initial residual = 0, Final residual = 0, No Iterations 0
DICPBiCGStab:  Solving for theta, Initial residual = 0.000204938, Final residual = 8.60524e-21, No Iterations 1
DICPCG:  Solving for Exner, Initial residual = 1.08251e-05, Final residual = 7.88271e-09, No Iterations 16
DICPCG:  Solving for Exner, Initial residual = 9.78471e-09, Final residual = 8.07843e-11, No Iterations 12
diagonal:  Solving for rho, Initial residual = 0, Final residual = 0, No Iterations 0
DICPBiCGStab:  Solving for theta, Initial residual = 1.28413e-05, Final residual = 5.75777e-22, No Iterations 1
DICPCG:  Solving for Exner, Initial residual = 3.20862e-06, Final residual = 2.46086e-09, No Iterations 15
DICPCG:  Solving for Exner, Initial residual = 2.51668e-09, Final residual = 7.37903e-11, No Iterations 9
diagonal:  Solving for rho, Initial residual = 0, Final residual = 0, No Iterations 0
DICPBiCGStab:  Solving for theta, Initial residual = 2.26834e-07, Final residual = 3.28833e-22, No Iterations 1
time step continuity errors : sum local = 1.26959e-10, global = 6.08213e-11, cumulative = 3.4935e-10
Maximum rho difference fraction = 1.16084e-08
Heat error = 9.17408e-16
ExecutionTime = 10.57 s  ClockTime = 11 s

Time = 18

Courant Number mean: 0.00046352 max: 0.010698 max Ndt = 0.0142687
diagonal:  Solving for rho, Initial residual = 0, Final residual = 0, No Iterations 0
DICPBiCGStab:  Solving for theta, Initial residual = 0.000230904, Final residual = 1.11324e-20, No Iterations 1
DICPCG:  Solving for Exner, Initial residual = 1.00702e-05, Final residual = 7.05616e-09, No Iterations 16
DICPCG:  Solving for Exner, Initial residual = 9.11581e-09, Final residual = 7.92309e-11, No Iterations 12
diagonal:  Solving for rho, Initial residual = 0, Final residual = 0, No Iterations 0
DICPBiCGStab:  Solving for theta, Initial residual = 1.35601e-05, Final residual = 5.8143e-22, No Iterations 1
DICPCG:  Solving for Exner, Initial residual = 3.61578e-06, Final residual = 3.48535e-09, No Iterations 15
DICPCG:  Solving for Exner, Initial residual = 3.54009e-09, Final residual = 8.40943e-11, No Iterations 9
diagonal:  Solving for rho, Initial residual = 0, Final residual = 0, No Iterations 0
DICPBiCGStab:  Solving for theta, Initial residual = 3.163e-07, Final residual = 6.83824e-23, No Iterations 1
time step continuity errors : sum local = 1.24066e-10, global = 5.58472e-11, cumulative = 4.05197e-10
Maximum rho difference fraction = 1.17312e-08
Heat error = -2.22799e-15
ExecutionTime = 11.84 s  ClockTime = 12 s

Time = 20

Courant Number mean: 0.00054123 max: 0.0119457 max Ndt = 0.014273
diagonal:  Solving for rho, Initial residual = 0, Final residual = 0, No Iterations 0
DICPBiCGStab:  Solving for theta, Initial residual = 0.000258643, Final residual = 1.14602e-20, No Iterations 1
DICPCG:  Solving for Exner, Initial residual = 1.12359e-05, Final residual = 7.66984e-09, No Iterations 16
DICPCG:  Solving for Exner, Initial residual = 9.89543e-09, Final residual = 7.59593e-11, No Iterations 12
diagonal:  Solving for rho, Initial residual = 0, Final residual = 0, No Iterations 0
DICPBiCGStab:  Solving for theta, Initial residual = 1.32929e-05, Final residual = 2.95694e-21, No Iterations 1
DICPCG:  Solving for Exner, Initial residual = 3.76232e-06, Final residual = 3.68478e-09, No Iterations 15
DICPCG:  Solving for Exner, Initial residual = 3.716e-09, Final residual = 6.47351e-11, No Iterations 10
diagonal:  Solving for rho, Initial residual = 0, Final residual = 0, No Iterations 0
DICPBiCGStab:  Solving for theta, Initial residual = 2.01335e-07, Final residual = 1.32888e-22, No Iterations 1
time step continuity errors : sum local = 1.28682e-10, global = 5.17971e-11, cumulative = 4.56994e-10
Maximum rho difference fraction = 1.15168e-08
Heat error = -3.93175e-15
ExecutionTime = 13.12 s  ClockTime = 14 s

Time = 22

Courant Number mean: 0.000624328 max: 0.0131695 max Ndt = 0.0142777
diagonal:  Solving for rho, Initial residual = 0, Final residual = 0, No Iterations 0
DICPBiCGStab:  Solving for theta, Initial residual = 0.000285603, Final residual = 1.07628e-20, No Iterations 1
DICPCG:  Solving for Exner, Initial residual = 1.24955e-05, Final residual = 8.35188e-09, No Iterations 16
DICPCG:  Solving for Exner, Initial residual = 1.06531e-08, Final residual = 9.63718e-11, No Iterations 12
diagonal:  Solving for rho, Initial residual = 0, Final residual = 0, No Iterations 0
DICPBiCGStab:  Solving for theta, Initial residual = 1.2501e-05, Final residual = 2.66239e-21, No Iterations 1
DICPCG:  Solving for Exner, Initial residual = 3.53551e-06, Final residual = 3.48528e-09, No Iterations 15
DICPCG:  Solving for Exner, Initial residual = 3.56691e-09, Final residual = 5.99817e-11, No Iterations 10
diagonal:  Solving for rho, Initial residual = 0, Final residual = 0, No Iterations 0
DICPBiCGStab:  Solving for theta, Initial residual = 9.81103e-08, Final residual = 1.01314e-21, No Iterations 1
time step continuity errors : sum local = 1.32997e-10, global = 4.80956e-11, cumulative = 5.0509e-10
Maximum rho difference fraction = 1.10643e-08
Heat error = 1.31058e-16
ExecutionTime = 14.82 s  ClockTime = 15 s

Time = 24

Courant Number mean: 0.000721868 max: 0.0143926 max Ndt = 0.0142828
diagonal:  Solving for rho, Initial residual = 0, Final residual = 0, No Iterations 0
DICPBiCGStab:  Solving for theta, Initial residual = 0.000310555, Final residual = 1.30223e-20, No Iterations 1
DICPCG:  Solving for Exner, Initial residual = 1.28433e-05, Final residual = 1.22027e-08, No Iterations 15
DICPCG:  Solving for Exner, Initial residual = 1.53132e-08, Final residual = 8.00111e-11, No Iterations 13
diagonal:  Solving for rho, Initial residual = 0, Final residual = 0, No Iterations 0
DICPBiCGStab:  Solving for theta, Initial residual = 1.18391e-05, Final residual = 2.63007e-21, No Iterations 1
DICPCG:  Solving for Exner, Initial residual = 3.7428e-06, Final residual = 2.39582e-09, No Iterations 16
DICPCG:  Solving for Exner, Initial residual = 2.42031e-09, Final residual = 7.17752e-11, No Iterations 9
diagonal:  Solving for rho, Initial residual = 0, Final residual = 0, No Iterations 0
DICPBiCGStab:  Solving for theta, Initial residual = 1.54968e-07, Final residual = 3.24627e-23, No Iterations 1
time step continuity errors : sum local = 1.29341e-10, global = 4.37867e-11, cumulative = 5.48876e-10
Maximum rho difference fraction = 1.09334e-08
Heat error = 2.22799e-15
ExecutionTime = 16.93 s  ClockTime = 17 s

Time = 26

Courant Number mean: 0.000826287 max: 0.0155936 max Ndt = 0.0142883
diagonal:  Solving for rho, Initial residual = 0, Final residual = 0, No Iterations 0
DICPBiCGStab:  Solving for theta, Initial residual = 0.000333932, Final residual = 1.53486e-20, No Iterations 1
DICPCG:  Solving for Exner, Initial residual = 1.32784e-05, Final residual = 1.23979e-08, No Iterations 15
DICPCG:  Solving for Exner, Initial residual = 1.63158e-08, Final residual = 8.25561e-11, No Iterations 13
diagonal:  Solving for rho, Initial residual = 0, Final residual = 0, No Iterations 0
DICPBiCGStab:  Solving for theta, Initial residual = 1.16357e-05, Final residual = 4.8187e-22, No Iterations 1
DICPCG:  Solving for Exner, Initial residual = 4.11688e-06, Final residual = 2.68921e-09, No Iterations 16
DICPCG:  Solving for Exner, Initial residual = 2.70552e-09, Final residual = 8.18863e-11, No Iterations 9
diagonal:  Solving for rho, Initial residual = 0, Final residual = 0, No Iterations 0
DICPBiCGStab:  Solving for theta, Initial residual = 1.58804e-07, Final residual = 3.31679e-23, No Iterations 1
time step continuity errors : sum local = 1.35613e-10, global = 3.90239e-11, cumulative = 5.879e-10
Maximum rho difference fraction = 1.08165e-08
Heat error = 5.50445e-15
ExecutionTime = 19.2 s  ClockTime = 20 s

Time = 28

Courant Number mean: 0.000934622 max: 0.0167464 max Ndt = 0.0142943
diagonal:  Solving for rho, Initial residual = 0, Final residual = 0, No Iterations 0
DICPBiCGStab:  Solving for theta, Initial residual = 0.000356886, Final residual = 1.51078e-20, No Iterations 1
DICPCG:  Solving for Exner, Initial residual = 1.43596e-05, Final residual = 1.40519e-08, No Iterations 15
DICPCG:  Solving for Exner, Initial residual = 1.82397e-08, Final residual = 9.44733e-11, No Iterations 13
diagonal:  Solving for rho, Initial residual = 0, Final residual = 0, No Iterations 0
DICPBiCGStab:  Solving for theta, Initial residual = 1.18715e-05, Final residual = 5.36739e-22, No Iterations 1
DICPCG:  Solving for Exner, Initial residual = 4.24718e-06, Final residual = 3.88373e-09, No Iterations 15
DICPCG:  Solving for Exner, Initial residual = 3.92797e-09, Final residual = 7.03095e-11, No Iterations 10
diagonal:  Solving for rho, Initial residual = 0, Final residual = 0, No Iterations 0
DICPBiCGStab:  Solving for theta, Initial residual = 1.12129e-07, Final residual = 1.12819e-22, No Iterations 1
time step continuity errors : sum local = 1.40753e-10, global = 3.5419e-11, cumulative = 6.23319e-10
Maximum rho difference fraction = 1.09368e-08
Heat error = -1.04847e-15
ExecutionTime = 21.37 s  ClockTime = 22 s

Time = 30

Courant Number mean: 0.00104438 max: 0.0178586 max Ndt = 0.0143007
diagonal:  Solving for rho, Initial residual = 0, Final residual = 0, No Iterations 0
DICPBiCGStab:  Solving for theta, Initial residual = 0.000380405, Final residual = 1.70066e-20, No Iterations 1
DICPCG:  Solving for Exner, Initial residual = 1.49947e-05, Final residual = 1.37589e-08, No Iterations 15
DICPCG:  Solving for Exner, Initial residual = 1.82776e-08, Final residual = 9.88122e-11, No Iterations 13
diagonal:  Solving for rho, Initial residual = 0, Final residual = 0, No Iterations 0
DICPBiCGStab:  Solving for theta, Initial residual = 1.23968e-05, Final residual = 5.49583e-22, No Iterations 1
DICPCG:  Solving for Exner, Initial residual = 4.25304e-06, Final residual = 3.53711e-09, No Iterations 15
DICPCG:  Solving for Exner, Initial residual = 3.52997e-09, Final residual = 9.81163e-11, No Iterations 9
diagonal:  Solving for rho, Initial residual = 0, Final residual = 0, No Iterations 0
DICPBiCGStab:  Solving for theta, Initial residual = 1.32741e-07, Final residual = 2.06171e-22, No Iterations 1
time step continuity errors : sum local = 1.48433e-10, global = 3.08385e-11, cumulative = 6.54158e-10
Maximum rho difference fraction = 1.06432e-08
Heat error = -7.20821e-15
ExecutionTime = 23.45 s  ClockTime = 24 s

Time = 32

Courant Number mean: 0.00115246 max: 0.0189763 max Ndt = 0.0143076
diagonal:  Solving for rho, Initial residual = 0, Final residual = 0, No Iterations 0
DICPBiCGStab:  Solving for theta, Initial residual = 0.000405082, Final residual = 1.78786e-20, No Iterations 1
DICPCG:  Solving for Exner, Initial residual = 1.51628e-05, Final residual = 1.33067e-08, No Iterations 15
DICPCG:  Solving for Exner, Initial residual = 1.79183e-08, Final residual = 6.98678e-11, No Iterations 14
diagonal:  Solving for rho, Initial residual = 0, Final residual = 0, No Iterations 0
DICPBiCGStab:  Solving for theta, Initial residual = 1.30652e-05, Final residual = 2.78746e-21, No Iterations 1
DICPCG:  Solving for Exner, Initial residual = 4.36395e-06, Final residual = 3.41843e-09, No Iterations 15
DICPCG:  Solving for Exner, Initial residual = 3.39535e-09, Final residual = 9.56592e-11, No Iterations 9
diagonal:  Solving for rho, Initial residual = 0, Final residual = 0, No Iterations 0
DICPBiCGStab:  Solving for theta, Initial residual = 2.08553e-07, Final residual = 2.77115e-22, No Iterations 1
time step continuity errors : sum local = 1.66804e-10, global = 2.83243e-11, cumulative = 6.82482e-10
Maximum rho difference fraction = 1.06482e-08
Heat error = -9.82937e-15
ExecutionTime = 25.5 s  ClockTime = 26 s

Time = 34

Courant Number mean: 0.00125647 max: 0.0201587 max Ndt = 0.0143148
diagonal:  Solving for rho, Initial residual = 0, Final residual = 0, No Iterations 0
DICPBiCGStab:  Solving for theta, Initial residual = 0.0004312, Final residual = 1.7522e-20, No Iterations 1
DICPCG:  Solving for Exner, Initial residual = 1.54657e-05, Final residual = 1.33008e-08, No Iterations 15
DICPCG:  Solving for Exner, Initial residual = 1.80604e-08, Final residual = 7.52474e-11, No Iterations 14
diagonal:  Solving for rho, Initial residual = 0, Final residual = 0, No Iterations 0
DICPBiCGStab:  Solving for theta, Initial residual = 1.37307e-05, Final residual = 2.97944e-21, No Iterations 1
DICPCG:  Solving for Exner, Initial residual = 4.33532e-06, Final residual = 2.71478e-09, No Iterations 15
DICPCG:  Solving for Exner, Initial residual = 2.74091e-09, Final residual = 8.35004e-11, No Iterations 9
diagonal:  Solving for rho, Initial residual = 0, Final residual = 0, No Iterations 0
DICPBiCGStab:  Solving for theta, Initial residual = 2.2867e-07, Final residual = 3.70381e-23, No Iterations 1
time step continuity errors : sum local = 1.73119e-10, global = 2.70297e-11, cumulative = 7.09512e-10
Maximum rho difference fraction = 9.08649e-09
Heat error = -6.81503e-15
ExecutionTime = 27.62 s  ClockTime = 28 s

Time = 36

Courant Number mean: 0.00135584 max: 0.0214518 max Ndt = 0.0143225
diagonal:  Solving for rho, Initial residual = 0, Final residual = 0, No Iterations 0
DICPBiCGStab:  Solving for theta, Initial residual = 0.000458748, Final residual = 1.93291e-20, No Iterations 1
DICPCG:  Solving for Exner, Initial residual = 1.51965e-05, Final residual = 1.15575e-08, No Iterations 15
DICPCG:  Solving for Exner, Initial residual = 1.73531e-08, Final residual = 7.77427e-11, No Iterations 14
diagonal:  Solving for rho, Initial residual = 0, Final residual = 0, No Iterations 0
DICPBiCGStab:  Solving for theta, Initial residual = 1.42441e-05, Final residual = 6.28756e-22, No Iterations 1
DICPCG:  Solving for Exner, Initial residual = 4.37299e-06, Final residual = 3.23798e-09, No Iterations 15
DICPCG:  Solving for Exner, Initial residual = 3.29168e-09, Final residual = 8.7341e-11, No Iterations 9
diagonal:  Solving for rho, Initial residual = 0, Final residual = 0, No Iterations 0
DICPBiCGStab:  Solving for theta, Initial residual = 1.59559e-07, Final residual = 5.49427e-22, No Iterations 1
time step continuity errors : sum local = 1.76283e-10, global = 2.6652e-11, cumulative = 7.36164e-10
Maximum rho difference fraction = 8.84716e-09
Heat error = -6.68397e-15
ExecutionTime = 29.73 s  ClockTime = 30 s

Time = 38

Courant Number mean: 0.00145101 max: 0.0228409 max Ndt = 0.0143307
diagonal:  Solving for rho, Initial residual = 0, Final residual = 0, No Iterations 0
DICPBiCGStab:  Solving for theta, Initial residual = 0.000487387, Final residual = 2.14178e-20, No Iterations 1
DICPCG:  Solving for Exner, Initial residual = 1.44814e-05, Final residual = 1.2107e-08, No Iterations 14
DICPCG:  Solving for Exner, Initial residual = 1.89203e-08, Final residual = 7.17459e-11, No Iterations 14
diagonal:  Solving for rho, Initial residual = 0, Final residual = 0, No Iterations 0
DICPBiCGStab:  Solving for theta, Initial residual = 1.4499e-05, Final residual = 6.75268e-22, No Iterations 1
DICPCG:  Solving for Exner, Initial residual = 4.54987e-06, Final residual = 3.65983e-09, No Iterations 15
DICPCG:  Solving for Exner, Initial residual = 3.684e-09, Final residual = 9.43768e-11, No Iterations 9
diagonal:  Solving for rho, Initial residual = 0, Final residual = 0, No Iterations 0
DICPBiCGStab:  Solving for theta, Initial residual = 1.58167e-07, Final residual = 1.59801e-22, No Iterations 1
time step continuity errors : sum local = 1.83773e-10, global = 2.67299e-11, cumulative = 7.62894e-10
Maximum rho difference fraction = 9.21653e-09
Heat error = -1.29748e-14
ExecutionTime = 31.81 s  ClockTime = 32 s

Time = 40

Courant Number mean: 0.00154251 max: 0.0242592 max Ndt = 0.0143394
diagonal:  Solving for rho, Initial residual = 0, Final residual = 0, No Iterations 0
DICPBiCGStab:  Solving for theta, Initial residual = 0.000516533, Final residual = 2.0971e-20, No Iterations 1
DICPCG:  Solving for Exner, Initial residual = 1.46262e-05, Final residual = 1.313e-08, No Iterations 14
DICPCG:  Solving for Exner, Initial residual = 2.03127e-08, Final residual = 6.70141e-11, No Iterations 14
diagonal:  Solving for rho, Initial residual = 0, Final residual = 0, No Iterations 0
DICPBiCGStab:  Solving for theta, Initial residual = 1.44841e-05, Final residual = 6.08558e-22, No Iterations 1
DICPCG:  Solving for Exner, Initial residual = 4.62081e-06, Final residual = 3.75778e-09, No Iterations 15
DICPCG:  Solving for Exner, Initial residual = 3.84012e-09, Final residual = 6.45244e-11, No Iterations 10
diagonal:  Solving for rho, Initial residual = 0, Final residual = 0, No Iterations 0
DICPBiCGStab:  Solving for theta, Initial residual = 2.1689e-07, Final residual = 1.44126e-22, No Iterations 1
time step continuity errors : sum local = 1.83008e-10, global = 2.72118e-11, cumulative = 7.90106e-10
Maximum rho difference fraction = 8.70363e-09
Heat error = -9.82937e-15
ExecutionTime = 34.03 s  ClockTime = 34 s

Time = 42

Courant Number mean: 0.00163135 max: 0.0256373 max Ndt = 0.0143486
diagonal:  Solving for rho, Initial residual = 0, Final residual = 0, No Iterations 0
DICPBiCGStab:  Solving for theta, Initial residual = 0.000545582, Final residual = 2.24526e-20, No Iterations 1
DICPCG:  Solving for Exner, Initial residual = 1.49467e-05, Final residual = 9.7886e-09, No Iterations 15
DICPCG:  Solving for Exner, Initial residual = 1.70145e-08, Final residual = 9.39124e-11, No Iterations 13
diagonal:  Solving for rho, Initial residual = 0, Final residual = 0, No Iterations 0
DICPBiCGStab:  Solving for theta, Initial residual = 1.42764e-05, Final residual = 5.74338e-22, No Iterations 1
DICPCG:  Solving for Exner, Initial residual = 4.48084e-06, Final residual = 3.43323e-09, No Iterations 15
DICPCG:  Solving for Exner, Initial residual = 3.56962e-09, Final residual = 9.52817e-11, No Iterations 9
diagonal:  Solving for rho, Initial residual = 0, Final residual = 0, No Iterations 0
DICPBiCGStab:  Solving for theta, Initial residual = 2.13435e-07, Final residual = 4.50818e-22, No Iterations 1
time step continuity errors : sum local = 1.92213e-10, global = 2.7637e-11, cumulative = 8.17743e-10
Maximum rho difference fraction = 8.98032e-09
Heat error = -3.93175e-15
ExecutionTime = 36.3 s  ClockTime = 37 s

Time = 44

Courant Number mean: 0.00171916 max: 0.0269507 max Ndt = 0.0143583
diagonal:  Solving for rho, Initial residual = 0, Final residual = 0, No Iterations 0
DICPBiCGStab:  Solving for theta, Initial residual = 0.000574109, Final residual = 2.658e-20, No Iterations 1
DICPCG:  Solving for Exner, Initial residual = 1.48306e-05, Final residual = 1.08279e-08, No Iterations 15
DICPCG:  Solving for Exner, Initial residual = 1.79261e-08, Final residual = 6.78829e-11, No Iterations 14
diagonal:  Solving for rho, Initial residual = 0, Final residual = 0, No Iterations 0
DICPBiCGStab:  Solving for theta, Initial residual = 1.39904e-05, Final residual = 2.22288e-21, No Iterations 1
DICPCG:  Solving for Exner, Initial residual = 4.29089e-06, Final residual = 2.79042e-09, No Iterations 15
DICPCG:  Solving for Exner, Initial residual = 2.92658e-09, Final residual = 7.75465e-11, No Iterations 9
diagonal:  Solving for rho, Initial residual = 0, Final residual = 0, No Iterations 0
DICPBiCGStab:  Solving for theta, Initial residual = 1.38263e-07, Final residual = 6.44509e-22, No Iterations 1
time step continuity errors : sum local = 1.95841e-10, global = 2.66102e-11, cumulative = 8.44353e-10
Maximum rho difference fraction = 1.05267e-08
Heat error = -9.4362e-15
ExecutionTime = 38.35 s  ClockTime = 39 s

Time = 46

Courant Number mean: 0.00180686 max: 0.0281966 max Ndt = 0.0143683
diagonal:  Solving for rho, Initial residual = 0, Final residual = 0, No Iterations 0
DICPBiCGStab:  Solving for theta, Initial residual = 0.000601956, Final residual = 2.41191e-20, No Iterations 1
DICPCG:  Solving for Exner, Initial residual = 1.43836e-05, Final residual = 1.08512e-08, No Iterations 15
DICPCG:  Solving for Exner, Initial residual = 1.79742e-08, Final residual = 7.33293e-11, No Iterations 14
diagonal:  Solving for rho, Initial residual = 0, Final residual = 0, No Iterations 0
DICPBiCGStab:  Solving for theta, Initial residual = 1.37329e-05, Final residual = 5.88874e-22, No Iterations 1
DICPCG:  Solving for Exner, Initial residual = 4.4081e-06, Final residual = 3.18965e-09, No Iterations 15
DICPCG:  Solving for Exner, Initial residual = 3.33789e-09, Final residual = 9.01976e-11, No Iterations 9
diagonal:  Solving for rho, Initial residual = 0, Final residual = 0, No Iterations 0
DICPBiCGStab:  Solving for theta, Initial residual = 1.09874e-07, Final residual = 1.34492e-22, No Iterations 1
time step continuity errors : sum local = 1.97317e-10, global = 2.39939e-11, cumulative = 8.68347e-10
Maximum rho difference fraction = 1.03776e-08
Heat error = -1.82171e-14
ExecutionTime = 40.34 s  ClockTime = 41 s

Time = 48

Courant Number mean: 0.00189421 max: 0.029418 max Ndt = 0.0143785
diagonal:  Solving for rho, Initial residual = 0, Final residual = 0, No Iterations 0
DICPBiCGStab:  Solving for theta, Initial residual = 0.000629206, Final residual = 9.41783e-20, No Iterations 1
DICPCG:  Solving for Exner, Initial residual = 1.42079e-05, Final residual = 1.00588e-08, No Iterations 15
DICPCG:  Solving for Exner, Initial residual = 1.73791e-08, Final residual = 6.9286e-11, No Iterations 14
diagonal:  Solving for rho, Initial residual = 0, Final residual = 0, No Iterations 0
DICPBiCGStab:  Solving for theta, Initial residual = 1.35827e-05, Final residual = 2.93458e-21, No Iterations 1
DICPCG:  Solving for Exner, Initial residual = 4.44689e-06, Final residual = 3.18941e-09, No Iterations 15
DICPCG:  Solving for Exner, Initial residual = 3.33111e-09, Final residual = 9.20927e-11, No Iterations 9
diagonal:  Solving for rho, Initial residual = 0, Final residual = 0, No Iterations 0
DICPBiCGStab:  Solving for theta, Initial residual = 1.41874e-07, Final residual = 6.29244e-22, No Iterations 1
time step continuity errors : sum local = 2.00173e-10, global = 2.0513e-11, cumulative = 8.8886e-10
Maximum rho difference fraction = 1.05529e-08
Heat error = -2.35905e-15
ExecutionTime = 42.38 s  ClockTime = 43 s

Time = 50

Courant Number mean: 0.00198429 max: 0.0306639 max Ndt = 0.0143891
diagonal:  Solving for rho, Initial residual = 0, Final residual = 0, No Iterations 0
DICPBiCGStab:  Solving for theta, Initial residual = 0.00065611, Final residual = 1.44825e-19, No Iterations 1
DICPCG:  Solving for Exner, Initial residual = 1.42851e-05, Final residual = 1.22948e-08, No Iterations 15
DICPCG:  Solving for Exner, Initial residual = 2.01277e-08, Final residual = 7.95479e-11, No Iterations 14
diagonal:  Solving for rho, Initial residual = 0, Final residual = 0, No Iterations 0
DICPBiCGStab:  Solving for theta, Initial residual = 1.35663e-05, Final residual = 2.86867e-21, No Iterations 1
DICPCG:  Solving for Exner, Initial residual = 4.36826e-06, Final residual = 3.10158e-09, No Iterations 15
DICPCG:  Solving for Exner, Initial residual = 3.20131e-09, Final residual = 8.24352e-11, No Iterations 9
diagonal:  Solving for rho, Initial residual = 0, Final residual = 0, No Iterations 0
DICPBiCGStab:  Solving for theta, Initial residual = 1.1271e-07, Final residual = 1.62692e-22, No Iterations 1
time step continuity errors : sum local = 2.07777e-10, global = 1.6319e-11, cumulative = 9.05179e-10
Maximum rho difference fraction = 1.06536e-08
Heat error = -8.64985e-15
ExecutionTime = 44.71 s  ClockTime = 45 s

Time = 52

Courant Number mean: 0.00207788 max: 0.0319526 max Ndt = 0.0144
diagonal:  Solving for rho, Initial residual = 0, Final residual = 0, No Iterations 0
DICPBiCGStab:  Solving for theta, Initial residual = 0.000682983, Final residual = 2.92865e-20, No Iterations 1
DICPCG:  Solving for Exner, Initial residual = 1.41687e-05, Final residual = 1.28399e-08, No Iterations 15
DICPCG:  Solving for Exner, Initial residual = 2.11368e-08, Final residual = 8.30922e-11, No Iterations 14
diagonal:  Solving for rho, Initial residual = 0, Final residual = 0, No Iterations 0
DICPBiCGStab:  Solving for theta, Initial residual = 1.36428e-05, Final residual = 6.32322e-22, No Iterations 1
DICPCG:  Solving for Exner, Initial residual = 4.23402e-06, Final residual = 4.19373e-09, No Iterations 14
DICPCG:  Solving for Exner, Initial residual = 4.26893e-09, Final residual = 9.99678e-11, No Iterations 9
diagonal:  Solving for rho, Initial residual = 0, Final residual = 0, No Iterations 0
DICPBiCGStab:  Solving for theta, Initial residual = 6.38511e-08, Final residual = 2.8718e-24, No Iterations 1
time step continuity errors : sum local = 2.20859e-10, global = 1.06352e-11, cumulative = 9.15814e-10
Maximum rho difference fraction = 1.10873e-08
Heat error = -2.49011e-15
ExecutionTime = 46.77 s  ClockTime = 47 s

Time = 54

Courant Number mean: 0.0021708 max: 0.0332656 max Ndt = 0.0144113
diagonal:  Solving for rho, Initial residual = 0, Final residual = 0, No Iterations 0
DICPBiCGStab:  Solving for theta, Initial residual = 0.00071004, Final residual = 1.10964e-19, No Iterations 1
DICPCG:  Solving for Exner, Initial residual = 1.38425e-05, Final residual = 1.12408e-08, No Iterations 15
DICPCG:  Solving for Exner, Initial residual = 1.99386e-08, Final residual = 7.54602e-11, No Iterations 14
diagonal:  Solving for rho, Initial residual = 0, Final residual = 0, No Iterations 0
DICPBiCGStab:  Solving for theta, Initial residual = 1.37201e-05, Final residual = 6.15309e-22, No Iterations 1
DICPCG:  Solving for Exner, Initial residual = 4.27566e-06, Final residual = 2.91002e-09, No Iterations 15
DICPCG:  Solving for Exner, Initial residual = 2.96668e-09, Final residual = 6.61616e-11, No Iterations 9
diagonal:  Solving for rho, Initial residual = 0, Final residual = 0, No Iterations 0
DICPBiCGStab:  Solving for theta, Initial residual = 7.72319e-08, Final residual = 6.8748e-23, No Iterations 1
time step continuity errors : sum local = 2.19867e-10, global = 7.61388e-12, cumulative = 9.23428e-10
Maximum rho difference fraction = 1.10456e-08
Heat error = -9.17408e-16
ExecutionTime = 48.8 s  ClockTime = 49 s

Time = 56

Courant Number mean: 0.00226141 max: 0.0345705 max Ndt = 0.014423
diagonal:  Solving for rho, Initial residual = 0, Final residual = 0, No Iterations 0
DICPBiCGStab:  Solving for theta, Initial residual = 0.00073727, Final residual = 3.57689e-20, No Iterations 1
DICPCG:  Solving for Exner, Initial residual = 1.38072e-05, Final residual = 1.15483e-08, No Iterations 15
DICPCG:  Solving for Exner, Initial residual = 2.07519e-08, Final residual = 7.93788e-11, No Iterations 14
diagonal:  Solving for rho, Initial residual = 0, Final residual = 0, No Iterations 0
DICPBiCGStab:  Solving for theta, Initial residual = 1.37119e-05, Final residual = 6.3862e-22, No Iterations 1
DICPCG:  Solving for Exner, Initial residual = 4.23828e-06, Final residual = 2.93381e-09, No Iterations 15
DICPCG:  Solving for Exner, Initial residual = 2.98727e-09, Final residual = 7.21033e-11, No Iterations 9
diagonal:  Solving for rho, Initial residual = 0, Final residual = 0, No Iterations 0
DICPBiCGStab:  Solving for theta, Initial residual = 8.51381e-08, Final residual = 5.6537e-23, No Iterations 1
time step continuity errors : sum local = 2.16877e-10, global = 4.94863e-12, cumulative = 9.28376e-10
Maximum rho difference fraction = 1.10275e-08
Heat error = -3.01434e-15
ExecutionTime = 50.78 s  ClockTime = 51 s

Time = 58

Courant Number mean: 0.00234802 max: 0.0358483 max Ndt = 0.014435
diagonal:  Solving for rho, Initial residual = 0, Final residual = 0, No Iterations 0
DICPBiCGStab:  Solving for theta, Initial residual = 0.000764473, Final residual = 1.14628e-19, No Iterations 1
DICPCG:  Solving for Exner, Initial residual = 1.38537e-05, Final residual = 1.19062e-08, No Iterations 15
DICPCG:  Solving for Exner, Initial residual = 2.16708e-08, Final residual = 8.43078e-11, No Iterations 14
diagonal:  Solving for rho, Initial residual = 0, Final residual = 0, No Iterations 0
DICPBiCGStab:  Solving for theta, Initial residual = 1.35972e-05, Final residual = 5.72383e-22, No Iterations 1
DICPCG:  Solving for Exner, Initial residual = 4.07131e-06, Final residual = 3.73483e-09, No Iterations 14
DICPCG:  Solving for Exner, Initial residual = 3.78373e-09, Final residual = 6.90113e-11, No Iterations 10
diagonal:  Solving for rho, Initial residual = 0, Final residual = 0, No Iterations 0
DICPBiCGStab:  Solving for theta, Initial residual = 6.50724e-08, Final residual = 3.00948e-24, No Iterations 1
time step continuity errors : sum local = 2.17102e-10, global = 2.47908e-12, cumulative = 9.30855e-10
Maximum rho difference fraction = 1.11522e-08
Heat error = -9.04302e-15
ExecutionTime = 52.76 s  ClockTime = 53 s

Time = 60

Courant Number mean: 0.00242849 max: 0.0371033 max Ndt = 0.0144472
diagonal:  Solving for rho, Initial residual = 0, Final residual = 0, No Iterations 0
DICPBiCGStab:  Solving for theta, Initial residual = 0.000791454, Final residual = 3.12983e-20, No Iterations 1
DICPCG:  Solving for Exner, Initial residual = 1.35123e-05, Final residual = 1.17175e-08, No Iterations 15
DICPCG:  Solving for Exner, Initial residual = 2.17695e-08, Final residual = 8.18661e-11, No Iterations 14
diagonal:  Solving for rho, Initial residual = 0, Final residual = 0, No Iterations 0
DICPBiCGStab:  Solving for theta, Initial residual = 1.34338e-05, Final residual = 2.91465e-21, No Iterations 1
DICPCG:  Solving for Exner, Initial residual = 3.8994e-06, Final residual = 3.69272e-09, No Iterations 14
DICPCG:  Solving for Exner, Initial residual = 3.71983e-09, Final residual = 7.01916e-11, No Iterations 10
diagonal:  Solving for rho, Initial residual = 0, Final residual = 0, No Iterations 0
DICPBiCGStab:  Solving for theta, Initial residual = 4.94377e-08, Final residual = 1.26398e-22, No Iterations 1
time step continuity errors : sum local = 2.23388e-10, global = 7.90217e-14, cumulative = 9.30934e-10
Maximum rho difference fraction = 1.10965e-08
Heat error = -1.04847e-14
ExecutionTime = 54.68 s  ClockTime = 55 s

Time = 62

Courant Number mean: 0.00250033 max: 0.0383508 max Ndt = 0.0144597
diagonal:  Solving for rho, Initial residual = 0, Final residual = 0, No Iterations 0
DICPBiCGStab:  Solving for theta, Initial residual = 0.000818059, Final residual = 3.5912e-20, No Iterations 1
DICPCG:  Solving for Exner, Initial residual = 1.29231e-05, Final residual = 1.10358e-08, No Iterations 15
DICPCG:  Solving for Exner, Initial residual = 2.13055e-08, Final residual = 8.43344e-11, No Iterations 14
diagonal:  Solving for rho, Initial residual = 0, Final residual = 0, No Iterations 0
DICPBiCGStab:  Solving for theta, Initial residual = 1.33045e-05, Final residual = 6.74975e-22, No Iterations 1
DICPCG:  Solving for Exner, Initial residual = 3.79977e-06, Final residual = 2.91603e-09, No Iterations 15
DICPCG:  Solving for Exner, Initial residual = 2.92259e-09, Final residual = 8.5776e-11, No Iterations 9
diagonal:  Solving for rho, Initial residual = 0, Final residual = 0, No Iterations 0
DICPBiCGStab:  Solving for theta, Initial residual = 5.15344e-08, Final residual = 2.33667e-24, No Iterations 1
time step continuity errors : sum local = 2.25373e-10, global = -1.48451e-12, cumulative = 9.2945e-10
Maximum rho difference fraction = 1.1092e-08
Heat error = -4.32492e-15
ExecutionTime = 56.7 s  ClockTime = 57 s

Time = 64

Courant Number mean: 0.00256136 max: 0.0396008 max Ndt = 0.0144725
diagonal:  Solving for rho, Initial residual = 0, Final residual = 0, No Iterations 0
DICPBiCGStab:  Solving for theta, Initial residual = 0.000844343, Final residual = 3.58847e-20, No Iterations 1
DICPCG:  Solving for Exner, Initial residual = 1.21732e-05, Final residual = 1.04107e-08, No Iterations 15
DICPCG:  Solving for Exner, Initial residual = 2.09005e-08, Final residual = 8.25359e-11, No Iterations 14
diagonal:  Solving for rho, Initial residual = 0, Final residual = 0, No Iterations 0
DICPBiCGStab:  Solving for theta, Initial residual = 1.32675e-05, Final residual = 5.41795e-22, No Iterations 1
DICPCG:  Solving for Exner, Initial residual = 3.73793e-06, Final residual = 2.99445e-09, No Iterations 15
DICPCG:  Solving for Exner, Initial residual = 2.98907e-09, Final residual = 8.09263e-11, No Iterations 9
diagonal:  Solving for rho, Initial residual = 0, Final residual = 0, No Iterations 0
DICPBiCGStab:  Solving for theta, Initial residual = 5.64721e-08, Final residual = 2.42293e-24, No Iterations 1
time step continuity errors : sum local = 2.27955e-10, global = -2.59817e-12, cumulative = 9.26852e-10
Maximum rho difference fraction = 1.10456e-08
Heat error = -6.55291e-15
ExecutionTime = 58.76 s  ClockTime = 59 s

Time = 66

Courant Number mean: 0.00261083 max: 0.0408515 max Ndt = 0.0144854
diagonal:  Solving for rho, Initial residual = 0, Final residual = 0, No Iterations 0
DICPBiCGStab:  Solving for theta, Initial residual = 0.000870533, Final residual = 3.75584e-20, No Iterations 1
DICPCG:  Solving for Exner, Initial residual = 1.12764e-05, Final residual = 7.83091e-09, No Iterations 15
DICPCG:  Solving for Exner, Initial residual = 1.87428e-08, Final residual = 7.46611e-11, No Iterations 14
diagonal:  Solving for rho, Initial residual = 0, Final residual = 0, No Iterations 0
DICPBiCGStab:  Solving for theta, Initial residual = 1.33309e-05, Final residual = 5.79062e-22, No Iterations 1
DICPCG:  Solving for Exner, Initial residual = 3.72336e-06, Final residual = 3.0676e-09, No Iterations 15
DICPCG:  Solving for Exner, Initial residual = 3.08153e-09, Final residual = 8.1367e-11, No Iterations 9
diagonal:  Solving for rho, Initial residual = 0, Final residual = 0, No Iterations 0
DICPBiCGStab:  Solving for theta, Initial residual = 4.98039e-08, Final residual = 2.14978e-24, No Iterations 1
time step continuity errors : sum local = 2.29345e-10, global = -3.32317e-12, cumulative = 9.23529e-10
Maximum rho difference fraction = 1.14998e-08
Heat error = -4.45598e-15
ExecutionTime = 60.76 s  ClockTime = 61 s

Time = 68

Courant Number mean: 0.00265197 max: 0.0420964 max Ndt = 0.0144986
diagonal:  Solving for rho, Initial residual = 0, Final residual = 0, No Iterations 0
DICPBiCGStab:  Solving for theta, Initial residual = 0.000896794, Final residual = 4.38459e-20, No Iterations 1
DICPCG:  Solving for Exner, Initial residual = 1.08763e-05, Final residual = 7.32529e-09, No Iterations 15
DICPCG:  Solving for Exner, Initial residual = 1.89464e-08, Final residual = 7.10542e-11, No Iterations 14
diagonal:  Solving for rho, Initial residual = 0, Final residual = 0, No Iterations 0
DICPBiCGStab:  Solving for theta, Initial residual = 1.34681e-05, Final residual = 6.12521e-22, No Iterations 1
DICPCG:  Solving for Exner, Initial residual = 3.68951e-06, Final residual = 3.41836e-09, No Iterations 15
DICPCG:  Solving for Exner, Initial residual = 3.45632e-09, Final residual = 8.90483e-11, No Iterations 9
diagonal:  Solving for rho, Initial residual = 0, Final residual = 0, No Iterations 0
DICPBiCGStab:  Solving for theta, Initial residual = 4.6165e-08, Final residual = 1.98399e-24, No Iterations 1
time step continuity errors : sum local = 2.3243e-10, global = -3.46581e-12, cumulative = 9.20063e-10
Maximum rho difference fraction = 1.57771e-08
Heat error = -7.60138e-15
ExecutionTime = 62.94 s  ClockTime = 63 s

Time = 70

Courant Number mean: 0.00271558 max: 0.0433352 max Ndt = 0.0145121
diagonal:  Solving for rho, Initial residual = 0, Final residual = 0, No Iterations 0
DICPBiCGStab:  Solving for theta, Initial residual = 0.000923263, Final residual = 4.24313e-20, No Iterations 1
DICPCG:  Solving for Exner, Initial residual = 1.10571e-05, Final residual = 9.74093e-09, No Iterations 15
DICPCG:  Solving for Exner, Initial residual = 2.17971e-08, Final residual = 7.71731e-11, No Iterations 14
diagonal:  Solving for rho, Initial residual = 0, Final residual = 0, No Iterations 0
DICPBiCGStab:  Solving for theta, Initial residual = 1.36373e-05, Final residual = 5.64871e-22, No Iterations 1
DICPCG:  Solving for Exner, Initial residual = 3.47449e-06, Final residual = 3.1662e-09, No Iterations 15
DICPCG:  Solving for Exner, Initial residual = 3.21115e-09, Final residual = 8.45903e-11, No Iterations 9
diagonal:  Solving for rho, Initial residual = 0, Final residual = 0, No Iterations 0
DICPBiCGStab:  Solving for theta, Initial residual = 6.29583e-08, Final residual = 3.00199e-24, No Iterations 1
time step continuity errors : sum local = 2.38065e-10, global = -2.96315e-12, cumulative = 9.171e-10
Maximum rho difference fraction = 2.27956e-08
Heat error = -2.35905e-15
ExecutionTime = 65.07 s  ClockTime = 65 s

Time = 72

Courant Number mean: 0.00278475 max: 0.0445767 max Ndt = 0.0145256
diagonal:  Solving for rho, Initial residual = 0, Final residual = 0, No Iterations 0
DICPBiCGStab:  Solving for theta, Initial residual = 0.00095, Final residual = 4.34052e-20, No Iterations 1
DICPCG:  Solving for Exner, Initial residual = 1.0825e-05, Final residual = 7.21555e-09, No Iterations 16
DICPCG:  Solving for Exner, Initial residual = 2.01027e-08, Final residual = 7.17881e-11, No Iterations 14
diagonal:  Solving for rho, Initial residual = 0, Final residual = 0, No Iterations 0
DICPBiCGStab:  Solving for theta, Initial residual = 1.38109e-05, Final residual = 5.63526e-22, No Iterations 1
DICPCG:  Solving for Exner, Initial residual = 3.20353e-06, Final residual = 2.75378e-09, No Iterations 15
DICPCG:  Solving for Exner, Initial residual = 2.78608e-09, Final residual = 7.64313e-11, No Iterations 9
diagonal:  Solving for rho, Initial residual = 0, Final residual = 0, No Iterations 0
DICPBiCGStab:  Solving for theta, Initial residual = 8.15155e-08, Final residual = 5.1585e-22, No Iterations 1
time step continuity errors : sum local = 2.42384e-10, global = -2.44401e-12, cumulative = 9.14656e-10
Maximum rho difference fraction = 2.34071e-08
Heat error = -1.61202e-14
ExecutionTime = 67.09 s  ClockTime = 68 s

Time = 74

Courant Number mean: 0.00285698 max: 0.0458334 max Ndt = 0.0145394
diagonal:  Solving for rho, Initial residual = 0, Final residual = 0, No Iterations 0
DICPBiCGStab:  Solving for theta, Initial residual = 0.000977003, Final residual = 4.03358e-20, No Iterations 1
DICPCG:  Solving for Exner, Initial residual = 1.0081e-05, Final residual = 7.06821e-09, No Iterations 16
DICPCG:  Solving for Exner, Initial residual = 2.04086e-08, Final residual = 7.59526e-11, No Iterations 14
diagonal:  Solving for rho, Initial residual = 0, Final residual = 0, No Iterations 0
DICPBiCGStab:  Solving for theta, Initial residual = 1.39584e-05, Final residual = 6.46924e-22, No Iterations 1
DICPCG:  Solving for Exner, Initial residual = 3.11687e-06, Final residual = 2.58465e-09, No Iterations 15
DICPCG:  Solving for Exner, Initial residual = 2.61199e-09, Final residual = 7.42928e-11, No Iterations 9
diagonal:  Solving for rho, Initial residual = 0, Final residual = 0, No Iterations 0
DICPBiCGStab:  Solving for theta, Initial residual = 8.21489e-08, Final residual = 5.74647e-22, No Iterations 1
time step continuity errors : sum local = 2.39132e-10, global = -2.28986e-12, cumulative = 9.12366e-10
Maximum rho difference fraction = 2.17098e-08
Heat error = -1.3499e-14
ExecutionTime = 69.43 s  ClockTime = 70 s

Time = 76

Courant Number mean: 0.00292622 max: 0.0471128 max Ndt = 0.0145533
diagonal:  Solving for rho, Initial residual = 0, Final residual = 0, No Iterations 0
DICPBiCGStab:  Solving for theta, Initial residual = 0.00100431, Final residual = 4.28675e-20, No Iterations 1
DICPCG:  Solving for Exner, Initial residual = 9.43013e-06, Final residual = 8.93911e-09, No Iterations 15
DICPCG:  Solving for Exner, Initial residual = 2.2364e-08, Final residual = 9.09981e-11, No Iterations 14
diagonal:  Solving for rho, Initial residual = 0, Final residual = 0, No Iterations 0
DICPBiCGStab:  Solving for theta, Initial residual = 1.4065e-05, Final residual = 5.98547e-22, No Iterations 1
DICPCG:  Solving for Exner, Initial residual = 3.24282e-06, Final residual = 2.67594e-09, No Iterations 15
DICPCG:  Solving for Exner, Initial residual = 2.71908e-09, Final residual = 7.4963e-11, No Iterations 9
diagonal:  Solving for rho, Initial residual = 0, Final residual = 0, No Iterations 0
DICPBiCGStab:  Solving for theta, Initial residual = 5.71592e-08, Final residual = 2.61043e-24, No Iterations 1
time step continuity errors : sum local = 2.35232e-10, global = -2.77909e-12, cumulative = 9.09587e-10
Maximum rho difference fraction = 2.46352e-08
Heat error = -3.53857e-15
ExecutionTime = 71.5 s  ClockTime = 72 s

Time = 78

Courant Number mean: 0.00300371 max: 0.0484126 max Ndt = 0.0145673
diagonal:  Solving for rho, Initial residual = 0, Final residual = 0, No Iterations 0
DICPBiCGStab:  Solving for theta, Initial residual = 0.00103185, Final residual = 4.51229e-20, No Iterations 1
DICPCG:  Solving for Exner, Initial residual = 9.41038e-06, Final residual = 8.90763e-09, No Iterations 15
DICPCG:  Solving for Exner, Initial residual = 2.24455e-08, Final residual = 8.82275e-11, No Iterations 14
diagonal:  Solving for rho, Initial residual = 0, Final residual = 0, No Iterations 0
DICPBiCGStab:  Solving for theta, Initial residual = 1.41263e-05, Final residual = 2.25988e-21, No Iterations 1
DICPCG:  Solving for Exner, Initial residual = 3.20497e-06, Final residual = 2.84196e-09, No Iterations 15
DICPCG:  Solving for Exner, Initial residual = 2.90996e-09, Final residual = 7.13336e-11, No Iterations 9
diagonal:  Solving for rho, Initial residual = 0, Final residual = 0, No Iterations 0
DICPBiCGStab:  Solving for theta, Initial residual = 5.26994e-08, Final residual = 1.04994e-22, No Iterations 1
time step continuity errors : sum local = 2.33638e-10, global = -3.93593e-12, cumulative = 9.05651e-10
Maximum rho difference fraction = 3.21025e-08
Heat error = -1.29748e-14
ExecutionTime = 73.49 s  ClockTime = 74 s

Time = 80

Courant Number mean: 0.00310176 max: 0.0497223 max Ndt = 0.0145814
diagonal:  Solving for rho, Initial residual = 0, Final residual = 0, No Iterations 0
DICPBiCGStab:  Solving for theta, Initial residual = 0.0010595, Final residual = 2.16644e-19, No Iterations 1
DICPCG:  Solving for Exner, Initial residual = 9.90398e-06, Final residual = 6.71173e-09, No Iterations 16
DICPCG:  Solving for Exner, Initial residual = 2.07822e-08, Final residual = 7.71255e-11, No Iterations 14
diagonal:  Solving for rho, Initial residual = 0, Final residual = 0, No Iterations 0
DICPBiCGStab:  Solving for theta, Initial residual = 1.41385e-05, Final residual = 3.00107e-21, No Iterations 1
DICPCG:  Solving for Exner, Initial residual = 2.85492e-06, Final residual = 2.69013e-09, No Iterations 15
DICPCG:  Solving for Exner, Initial residual = 2.7511e-09, Final residual = 9.65026e-11, No Iterations 8
diagonal:  Solving for rho, Initial residual = 0, Final residual = 0, No Iterations 0
DICPBiCGStab:  Solving for theta, Initial residual = 8.63452e-08, Final residual = 5.66395e-23, No Iterations 1
time step continuity errors : sum local = 2.4241e-10, global = -6.05773e-12, cumulative = 8.99593e-10
Maximum rho difference fraction = 2.13458e-08
Heat error = -1.41543e-14
ExecutionTime = 76.52 s  ClockTime = 77 s

Time = 82

Courant Number mean: 0.00320467 max: 0.0510281 max Ndt = 0.0145955
diagonal:  Solving for rho, Initial residual = 0, Final residual = 0, No Iterations 0
DICPBiCGStab:  Solving for theta, Initial residual = 0.00108715, Final residual = 4.62917e-20, No Iterations 1
DICPCG:  Solving for Exner, Initial residual = 9.78327e-06, Final residual = 6.91571e-09, No Iterations 16
DICPCG:  Solving for Exner, Initial residual = 2.11551e-08, Final residual = 7.66962e-11, No Iterations 14
diagonal:  Solving for rho, Initial residual = 0, Final residual = 0, No Iterations 0
DICPBiCGStab:  Solving for theta, Initial residual = 1.4109e-05, Final residual = 6.64277e-22, No Iterations 1
DICPCG:  Solving for Exner, Initial residual = 2.7913e-06, Final residual = 2.35649e-09, No Iterations 15
DICPCG:  Solving for Exner, Initial residual = 2.40046e-09, Final residual = 8.04549e-11, No Iterations 8
diagonal:  Solving for rho, Initial residual = 0, Final residual = 0, No Iterations 0
DICPBiCGStab:  Solving for theta, Initial residual = 1.0669e-07, Final residual = 7.70092e-22, No Iterations 1
time step continuity errors : sum local = 2.52096e-10, global = -9.25088e-12, cumulative = 8.90342e-10
Maximum rho difference fraction = 1.41125e-08
Heat error = -3.40752e-15
ExecutionTime = 79.59 s  ClockTime = 80 s

Time = 84

Courant Number mean: 0.00329999 max: 0.0523186 max Ndt = 0.0146096
diagonal:  Solving for rho, Initial residual = 0, Final residual = 0, No Iterations 0
DICPBiCGStab:  Solving for theta, Initial residual = 0.00111467, Final residual = 4.69471e-20, No Iterations 1
DICPCG:  Solving for Exner, Initial residual = 9.05532e-06, Final residual = 6.46524e-09, No Iterations 16
DICPCG:  Solving for Exner, Initial residual = 2.07724e-08, Final residual = 7.7436e-11, No Iterations 14
diagonal:  Solving for rho, Initial residual = 0, Final residual = 0, No Iterations 0
DICPBiCGStab:  Solving for theta, Initial residual = 1.40607e-05, Final residual = 6.43305e-22, No Iterations 1
DICPCG:  Solving for Exner, Initial residual = 2.87719e-06, Final residual = 2.26653e-09, No Iterations 15
DICPCG:  Solving for Exner, Initial residual = 2.30168e-09, Final residual = 8.6688e-11, No Iterations 8
diagonal:  Solving for rho, Initial residual = 0, Final residual = 0, No Iterations 0
DICPBiCGStab:  Solving for theta, Initial residual = 9.66765e-08, Final residual = 5.148e-22, No Iterations 1
time step continuity errors : sum local = 2.54479e-10, global = -1.35386e-11, cumulative = 8.76803e-10
Maximum rho difference fraction = 1.78962e-08
Heat error = -1.49406e-14
ExecutionTime = 82.26 s  ClockTime = 83 s

Time = 86

Courant Number mean: 0.00339507 max: 0.053589 max Ndt = 0.0146237
diagonal:  Solving for rho, Initial residual = 0, Final residual = 0, No Iterations 0
DICPBiCGStab:  Solving for theta, Initial residual = 0.00114194, Final residual = 5.49721e-20, No Iterations 1
DICPCG:  Solving for Exner, Initial residual = 9.62814e-06, Final residual = 6.41782e-09, No Iterations 16
DICPCG:  Solving for Exner, Initial residual = 2.10331e-08, Final residual = 7.8746e-11, No Iterations 14
diagonal:  Solving for rho, Initial residual = 0, Final residual = 0, No Iterations 0
DICPBiCGStab:  Solving for theta, Initial residual = 1.4027e-05, Final residual = 6.10571e-22, No Iterations 1
DICPCG:  Solving for Exner, Initial residual = 3.0403e-06, Final residual = 2.47934e-09, No Iterations 15
DICPCG:  Solving for Exner, Initial residual = 2.52423e-09, Final residual = 6.43855e-11, No Iterations 9
diagonal:  Solving for rho, Initial residual = 0, Final residual = 0, No Iterations 0
DICPBiCGStab:  Solving for theta, Initial residual = 6.65718e-08, Final residual = 2.90517e-23, No Iterations 1
time step continuity errors : sum local = 2.60037e-10, global = -1.73342e-11, cumulative = 8.59469e-10
Maximum rho difference fraction = 1.96293e-08
Heat error = -1.33679e-14
ExecutionTime = 84.72 s  ClockTime = 85 s

Time = 88

Courant Number mean: 0.00349295 max: 0.0548425 max Ndt = 0.0146377
diagonal:  Solving for rho, Initial residual = 0, Final residual = 0, No Iterations 0
DICPBiCGStab:  Solving for theta, Initial residual = 0.00116898, Final residual = 4.61791e-20, No Iterations 1
DICPCG:  Solving for Exner, Initial residual = 1.0506e-05, Final residual = 6.9943e-09, No Iterations 16
DICPCG:  Solving for Exner, Initial residual = 2.21832e-08, Final residual = 8.28129e-11, No Iterations 14
diagonal:  Solving for rho, Initial residual = 0, Final residual = 0, No Iterations 0
DICPBiCGStab:  Solving for theta, Initial residual = 1.40282e-05, Final residual = 5.87807e-22, No Iterations 1
DICPCG:  Solving for Exner, Initial residual = 2.79132e-06, Final residual = 2.1667e-09, No Iterations 15
DICPCG:  Solving for Exner, Initial residual = 2.20322e-09, Final residual = 9.7404e-11, No Iterations 8
diagonal:  Solving for rho, Initial residual = 0, Final residual = 0, No Iterations 0
DICPBiCGStab:  Solving for theta, Initial residual = 6.78694e-08, Final residual = 3.92202e-22, No Iterations 1
time step continuity errors : sum local = 2.54137e-10, global = -2.30607e-11, cumulative = 8.36409e-10
Maximum rho difference fraction = 2.42958e-08
Heat error = -1.04847e-15
ExecutionTime = 88.42 s  ClockTime = 89 s

Time = 90

Courant Number mean: 0.00359248 max: 0.0560887 max Ndt = 0.0146567
diagonal:  Solving for rho, Initial residual = 0, Final residual = 0, No Iterations 0
DICPBiCGStab:  Solving for theta, Initial residual = 0.00119584, Final residual = 5.46199e-20, No Iterations 1
DICPCG:  Solving for Exner, Initial residual = 1.06483e-05, Final residual = 1.04399e-08, No Iterations 15
DICPCG:  Solving for Exner, Initial residual = 2.59721e-08, Final residual = 9.84086e-11, No Iterations 14
diagonal:  Solving for rho, Initial residual = 0, Final residual = 0, No Iterations 0
DICPBiCGStab:  Solving for theta, Initial residual = 1.40593e-05, Final residual = 5.8859e-22, No Iterations 1
DICPCG:  Solving for Exner, Initial residual = 2.27788e-06, Final residual = 2.08361e-09, No Iterations 15
DICPCG:  Solving for Exner, Initial residual = 2.11112e-09, Final residual = 9.03451e-11, No Iterations 8
diagonal:  Solving for rho, Initial residual = 0, Final residual = 0, No Iterations 0
DICPBiCGStab:  Solving for theta, Initial residual = 7.77142e-08, Final residual = 5.61049e-22, No Iterations 1
time step continuity errors : sum local = 2.52507e-10, global = -2.79187e-11, cumulative = 8.0849e-10
Maximum rho difference fraction = 3.12411e-08
Heat error = -6.42186e-15
ExecutionTime = 92.13 s  ClockTime = 93 s

Time = 92

Courant Number mean: 0.00367578 max: 0.0573387 max Ndt = 0.01468
diagonal:  Solving for rho, Initial residual = 0, Final residual = 0, No Iterations 0
DICPBiCGStab:  Solving for theta, Initial residual = 0.00122263, Final residual = 5.17181e-20, No Iterations 1
DICPCG:  Solving for Exner, Initial residual = 9.45509e-06, Final residual = 9.26515e-09, No Iterations 15
DICPCG:  Solving for Exner, Initial residual = 2.54988e-08, Final residual = 9.61012e-11, No Iterations 14
diagonal:  Solving for rho, Initial residual = 0, Final residual = 0, No Iterations 0
DICPBiCGStab:  Solving for theta, Initial residual = 1.4103e-05, Final residual = 2.25483e-21, No Iterations 1
DICPCG:  Solving for Exner, Initial residual = 2.32061e-06, Final residual = 2.09053e-09, No Iterations 15
DICPCG:  Solving for Exner, Initial residual = 2.10583e-09, Final residual = 9.27188e-11, No Iterations 8
diagonal:  Solving for rho, Initial residual = 0, Final residual = 0, No Iterations 0
DICPBiCGStab:  Solving for theta, Initial residual = 6.84642e-08, Final residual = 2.9685e-22, No Iterations 1
time step continuity errors : sum local = 2.56716e-10, global = -3.1103e-11, cumulative = 7.77387e-10
Maximum rho difference fraction = 3.41528e-08
Heat error = -2.09693e-15
ExecutionTime = 96.14 s  ClockTime = 97 s

Time = 94

Courant Number mean: 0.0037347 max: 0.0585994 max Ndt = 0.0147036
diagonal:  Solving for rho, Initial residual = 0, Final residual = 0, No Iterations 0
DICPBiCGStab:  Solving for theta, Initial residual = 0.00124935, Final residual = 2.64115e-19, No Iterations 1
DICPCG:  Solving for Exner, Initial residual = 8.02078e-06, Final residual = 5.45301e-09, No Iterations 16
DICPCG:  Solving for Exner, Initial residual = 2.22956e-08, Final residual = 8.40454e-11, No Iterations 14
diagonal:  Solving for rho, Initial residual = 0, Final residual = 0, No Iterations 0
DICPBiCGStab:  Solving for theta, Initial residual = 1.41502e-05, Final residual = 6.1714e-22, No Iterations 1
DICPCG:  Solving for Exner, Initial residual = 2.79268e-06, Final residual = 2.42586e-09, No Iterations 15
DICPCG:  Solving for Exner, Initial residual = 2.44495e-09, Final residual = 6.59849e-11, No Iterations 9
diagonal:  Solving for rho, Initial residual = 0, Final residual = 0, No Iterations 0
DICPBiCGStab:  Solving for theta, Initial residual = 5.12348e-08, Final residual = 2.6565e-24, No Iterations 1
time step continuity errors : sum local = 2.57888e-10, global = -3.14568e-11, cumulative = 7.4593e-10
Maximum rho difference fraction = 3.00349e-08
Heat error = -2.49011e-15
ExecutionTime = 100.51 s  ClockTime = 101 s

Time = 96

Courant Number mean: 0.0037825 max: 0.0598705 max Ndt = 0.0147272
diagonal:  Solving for rho, Initial residual = 0, Final residual = 0, No Iterations 0
DICPBiCGStab:  Solving for theta, Initial residual = 0.00127604, Final residual = 2.77685e-19, No Iterations 1
DICPCG:  Solving for Exner, Initial residual = 8.30419e-06, Final residual = 6.9331e-09, No Iterations 15
DICPCG:  Solving for Exner, Initial residual = 2.42107e-08, Final residual = 9.39458e-11, No Iterations 14
diagonal:  Solving for rho, Initial residual = 0, Final residual = 0, No Iterations 0
DICPBiCGStab:  Solving for theta, Initial residual = 1.42068e-05, Final residual = 5.80975e-22, No Iterations 1
DICPCG:  Solving for Exner, Initial residual = 2.96859e-06, Final residual = 2.55922e-09, No Iterations 15
DICPCG:  Solving for Exner, Initial residual = 2.60068e-09, Final residual = 6.87645e-11, No Iterations 9
diagonal:  Solving for rho, Initial residual = 0, Final residual = 0, No Iterations 0
DICPBiCGStab:  Solving for theta, Initial residual = 5.70517e-08, Final residual = 2.36714e-24, No Iterations 1
time step continuity errors : sum local = 2.61247e-10, global = -3.02991e-11, cumulative = 7.15631e-10
Maximum rho difference fraction = 2.56506e-08
Heat error = -1.31058e-15
ExecutionTime = 104.2 s  ClockTime = 105 s

Time = 98

Courant Number mean: 0.00381923 max: 0.0611448 max Ndt = 0.014751
diagonal:  Solving for rho, Initial residual = 0, Final residual = 0, No Iterations 0
DICPBiCGStab:  Solving for theta, Initial residual = 0.00130272, Final residual = 5.53247e-20, No Iterations 1
DICPCG:  Solving for Exner, Initial residual = 9.33609e-06, Final residual = 7.05158e-09, No Iterations 15
DICPCG:  Solving for Exner, Initial residual = 2.45407e-08, Final residual = 9.07517e-11, No Iterations 14
diagonal:  Solving for rho, Initial residual = 0, Final residual = 0, No Iterations 0
DICPBiCGStab:  Solving for theta, Initial residual = 1.42707e-05, Final residual = 6.41456e-22, No Iterations 1
DICPCG:  Solving for Exner, Initial residual = 2.63597e-06, Final residual = 2.36072e-09, No Iterations 15
DICPCG:  Solving for Exner, Initial residual = 2.39024e-09, Final residual = 9.67476e-11, No Iterations 8
diagonal:  Solving for rho, Initial residual = 0, Final residual = 0, No Iterations 0
DICPBiCGStab:  Solving for theta, Initial residual = 7.7273e-08, Final residual = 1.19821e-22, No Iterations 1
time step continuity errors : sum local = 2.59034e-10, global = -2.6863e-11, cumulative = 6.88768e-10
Maximum rho difference fraction = 2.94799e-08
Heat error = -7.07715e-15
ExecutionTime = 107.36 s  ClockTime = 108 s

Time = 100

Courant Number mean: 0.00385431 max: 0.0624138 max Ndt = 0.0147749
diagonal:  Solving for rho, Initial residual = 0, Final residual = 0, No Iterations 0
DICPBiCGStab:  Solving for theta, Initial residual = 0.00132951, Final residual = 5.79401e-20, No Iterations 1
DICPCG:  Solving for Exner, Initial residual = 9.37772e-06, Final residual = 7.9958e-09, No Iterations 15
DICPCG:  Solving for Exner, Initial residual = 2.55677e-08, Final residual = 9.06307e-11, No Iterations 14
diagonal:  Solving for rho, Initial residual = 0, Final residual = 0, No Iterations 0
DICPBiCGStab:  Solving for theta, Initial residual = 1.43289e-05, Final residual = 5.77361e-22, No Iterations 1
DICPCG:  Solving for Exner, Initial residual = 2.24114e-06, Final residual = 1.58666e-09, No Iterations 16
DICPCG:  Solving for Exner, Initial residual = 1.62796e-09, Final residual = 6.59969e-11, No Iterations 8
diagonal:  Solving for rho, Initial residual = 0, Final residual = 0, No Iterations 0
DICPBiCGStab:  Solving for theta, Initial residual = 7.83838e-08, Final residual = 2.7214e-23, No Iterations 1
time step continuity errors : sum local = 2.60528e-10, global = -2.60764e-11, cumulative = 6.62692e-10
Maximum rho difference fraction = 3.0267e-08
Heat error = -8.12561e-15
ExecutionTime = 110.61 s  ClockTime = 111 s

Time = 102

Courant Number mean: 0.00389627 max: 0.0636724 max Ndt = 0.0147989
diagonal:  Solving for rho, Initial residual = 0, Final residual = 0, No Iterations 0
DICPBiCGStab:  Solving for theta, Initial residual = 0.00135646, Final residual = 2.01953e-19, No Iterations 1
DICPCG:  Solving for Exner, Initial residual = 8.71616e-06, Final residual = 7.8872e-09, No Iterations 15
DICPCG:  Solving for Exner, Initial residual = 2.56241e-08, Final residual = 8.90909e-11, No Iterations 14
diagonal:  Solving for rho, Initial residual = 0, Final residual = 0, No Iterations 0
DICPBiCGStab:  Solving for theta, Initial residual = 1.43673e-05, Final residual = 6.17605e-22, No Iterations 1
DICPCG:  Solving for Exner, Initial residual = 2.67054e-06, Final residual = 2.37624e-09, No Iterations 15
DICPCG:  Solving for Exner, Initial residual = 2.42549e-09, Final residual = 9.89823e-11, No Iterations 8
diagonal:  Solving for rho, Initial residual = 0, Final residual = 0, No Iterations 0
DICPBiCGStab:  Solving for theta, Initial residual = 6.69572e-08, Final residual = 1.48457e-22, No Iterations 1
time step continuity errors : sum local = 2.57577e-10, global = -2.21892e-11, cumulative = 6.40502e-10
Maximum rho difference fraction = 3.23329e-08
Heat error = -6.55291e-16
ExecutionTime = 113.89 s  ClockTime = 114 s

Time = 104

Courant Number mean: 0.00395696 max: 0.0649212 max Ndt = 0.0148228
diagonal:  Solving for rho, Initial residual = 0, Final residual = 0, No Iterations 0
DICPBiCGStab:  Solving for theta, Initial residual = 0.00138344, Final residual = 5.92506e-20, No Iterations 1
DICPCG:  Solving for Exner, Initial residual = 8.84304e-06, Final residual = 8.74133e-09, No Iterations 15
DICPCG:  Solving for Exner, Initial residual = 2.67581e-08, Final residual = 9.68016e-11, No Iterations 14
diagonal:  Solving for rho, Initial residual = 0, Final residual = 0, No Iterations 0
DICPBiCGStab:  Solving for theta, Initial residual = 1.43802e-05, Final residual = 6.27925e-22, No Iterations 1
DICPCG:  Solving for Exner, Initial residual = 2.95715e-06, Final residual = 2.29374e-09, No Iterations 15
DICPCG:  Solving for Exner, Initial residual = 2.335e-09, Final residual = 9.7355e-11, No Iterations 8
diagonal:  Solving for rho, Initial residual = 0, Final residual = 0, No Iterations 0
DICPBiCGStab:  Solving for theta, Initial residual = 6.70644e-08, Final residual = 4.17146e-22, No Iterations 1
time step continuity errors : sum local = 2.65008e-10, global = -1.86696e-11, cumulative = 6.21833e-10
Maximum rho difference fraction = 4.18194e-08
Heat error = -1.08778e-14
ExecutionTime = 116.98 s  ClockTime = 117 s

Time = 106

Courant Number mean: 0.00404225 max: 0.0661651 max Ndt = 0.0148467
diagonal:  Solving for rho, Initial residual = 0, Final residual = 0, No Iterations 0
DICPBiCGStab:  Solving for theta, Initial residual = 0.00141027, Final residual = 6.45135e-20, No Iterations 1
DICPCG:  Solving for Exner, Initial residual = 1.00694e-05, Final residual = 9.88357e-09, No Iterations 15
DICPCG:  Solving for Exner, Initial residual = 2.80322e-08, Final residual = 6.15184e-11, No Iterations 15
diagonal:  Solving for rho, Initial residual = 0, Final residual = 0, No Iterations 0
DICPBiCGStab:  Solving for theta, Initial residual = 1.43707e-05, Final residual = 6.10993e-22, No Iterations 1
DICPCG:  Solving for Exner, Initial residual = 2.6874e-06, Final residual = 2.31862e-09, No Iterations 15
DICPCG:  Solving for Exner, Initial residual = 2.34902e-09, Final residual = 9.78414e-11, No Iterations 8
diagonal:  Solving for rho, Initial residual = 0, Final residual = 0, No Iterations 0
DICPBiCGStab:  Solving for theta, Initial residual = 6.43663e-08, Final residual = 2.64671e-22, No Iterations 1
time step continuity errors : sum local = 2.79926e-10, global = -1.93297e-11, cumulative = 6.02503e-10
Maximum rho difference fraction = 4.82092e-08
Heat error = -1.70376e-15
ExecutionTime = 119.22 s  ClockTime = 120 s

Time = 108

Courant Number mean: 0.00414405 max: 0.0674081 max Ndt = 0.0148706
diagonal:  Solving for rho, Initial residual = 0, Final residual = 0, No Iterations 0
DICPBiCGStab:  Solving for theta, Initial residual = 0.00143691, Final residual = 6.15533e-20, No Iterations 1
DICPCG:  Solving for Exner, Initial residual = 1.07068e-05, Final residual = 1.0495e-08, No Iterations 15
DICPCG:  Solving for Exner, Initial residual = 2.89327e-08, Final residual = 6.73412e-11, No Iterations 15
diagonal:  Solving for rho, Initial residual = 0, Final residual = 0, No Iterations 0
DICPBiCGStab:  Solving for theta, Initial residual = 1.43416e-05, Final residual = 7.06461e-22, No Iterations 1
DICPCG:  Solving for Exner, Initial residual = 2.35877e-06, Final residual = 2.06936e-09, No Iterations 15
DICPCG:  Solving for Exner, Initial residual = 2.11663e-09, Final residual = 9.33605e-11, No Iterations 8
diagonal:  Solving for rho, Initial residual = 0, Final residual = 0, No Iterations 0
DICPBiCGStab:  Solving for theta, Initial residual = 5.68292e-08, Final residual = 1.57574e-22, No Iterations 1
time step continuity errors : sum local = 2.93043e-10, global = -2.29936e-11, cumulative = 5.79509e-10
Maximum rho difference fraction = 4.97571e-08
Heat error = -7.73244e-15
ExecutionTime = 121.89 s  ClockTime = 122 s

Time = 110

Courant Number mean: 0.00424161 max: 0.0686501 max Ndt = 0.0148943
diagonal:  Solving for rho, Initial residual = 0, Final residual = 0, No Iterations 0
DICPBiCGStab:  Solving for theta, Initial residual = 0.0014633, Final residual = 6.81849e-20, No Iterations 1
DICPCG:  Solving for Exner, Initial residual = 1.01474e-05, Final residual = 6.80401e-09, No Iterations 16
DICPCG:  Solving for Exner, Initial residual = 2.61968e-08, Final residual = 6.65155e-11, No Iterations 15
diagonal:  Solving for rho, Initial residual = 0, Final residual = 0, No Iterations 0
DICPBiCGStab:  Solving for theta, Initial residual = 1.43036e-05, Final residual = 5.99235e-22, No Iterations 1
DICPCG:  Solving for Exner, Initial residual = 2.33269e-06, Final residual = 2.20384e-09, No Iterations 15
DICPCG:  Solving for Exner, Initial residual = 2.23735e-09, Final residual = 6.52856e-11, No Iterations 9
diagonal:  Solving for rho, Initial residual = 0, Final residual = 0, No Iterations 0
DICPBiCGStab:  Solving for theta, Initial residual = 5.29242e-08, Final residual = 7.07727e-23, No Iterations 1
time step continuity errors : sum local = 2.93319e-10, global = -2.5444e-11, cumulative = 5.54065e-10
Maximum rho difference fraction = 4.83362e-08
Heat error = -1.50717e-14
ExecutionTime = 124.13 s  ClockTime = 125 s

Time = 112

Courant Number mean: 0.00432124 max: 0.0698865 max Ndt = 0.014918
diagonal:  Solving for rho, Initial residual = 0, Final residual = 0, No Iterations 0
DICPBiCGStab:  Solving for theta, Initial residual = 0.00148956, Final residual = 2.27532e-19, No Iterations 1
DICPCG:  Solving for Exner, Initial residual = 1.00193e-05, Final residual = 9.28792e-09, No Iterations 15
DICPCG:  Solving for Exner, Initial residual = 2.90689e-08, Final residual = 7.48742e-11, No Iterations 15
diagonal:  Solving for rho, Initial residual = 0, Final residual = 0, No Iterations 0
DICPBiCGStab:  Solving for theta, Initial residual = 1.42642e-05, Final residual = 6.41005e-22, No Iterations 1
DICPCG:  Solving for Exner, Initial residual = 2.74739e-06, Final residual = 2.68468e-09, No Iterations 15
DICPCG:  Solving for Exner, Initial residual = 2.68304e-09, Final residual = 7.90148e-11, No Iterations 9
diagonal:  Solving for rho, Initial residual = 0, Final residual = 0, No Iterations 0
DICPBiCGStab:  Solving for theta, Initial residual = 5.88561e-08, Final residual = 2.62789e-23, No Iterations 1
time step continuity errors : sum local = 2.9775e-10, global = -2.80503e-11, cumulative = 5.26015e-10
Maximum rho difference fraction = 4.8279e-08
Heat error = -1.31058e-15
ExecutionTime = 126.18 s  ClockTime = 127 s

Time = 114

Courant Number mean: 0.00437911 max: 0.0711112 max Ndt = 0.0149414
diagonal:  Solving for rho, Initial residual = 0, Final residual = 0, No Iterations 0
DICPBiCGStab:  Solving for theta, Initial residual = 0.00151551, Final residual = 6.75319e-20, No Iterations 1
DICPCG:  Solving for Exner, Initial residual = 9.8787e-06, Final residual = 7.30111e-09, No Iterations 16
DICPCG:  Solving for Exner, Initial residual = 2.78055e-08, Final residual = 7.58341e-11, No Iterations 15
diagonal:  Solving for rho, Initial residual = 0, Final residual = 0, No Iterations 0
DICPBiCGStab:  Solving for theta, Initial residual = 1.42295e-05, Final residual = 6.90293e-22, No Iterations 1
DICPCG:  Solving for Exner, Initial residual = 2.83136e-06, Final residual = 1.92109e-09, No Iterations 16
DICPCG:  Solving for Exner, Initial residual = 1.95478e-09, Final residual = 8.84122e-11, No Iterations 8
diagonal:  Solving for rho, Initial residual = 0, Final residual = 0, No Iterations 0
DICPBiCGStab:  Solving for theta, Initial residual = 6.39697e-08, Final residual = 1.27773e-22, No Iterations 1
time step continuity errors : sum local = 3.07745e-10, global = -3.25214e-11, cumulative = 4.93494e-10
Maximum rho difference fraction = 5.44991e-08
Heat error = 3.1454e-15
ExecutionTime = 128.23 s  ClockTime = 129 s

Time = 116

Courant Number mean: 0.00444177 max: 0.0723202 max Ndt = 0.0149646
diagonal:  Solving for rho, Initial residual = 0, Final residual = 0, No Iterations 0
DICPBiCGStab:  Solving for theta, Initial residual = 0.00154119, Final residual = 3.3415e-19, No Iterations 1
DICPCG:  Solving for Exner, Initial residual = 1.04571e-05, Final residual = 7.66751e-09, No Iterations 16
DICPCG:  Solving for Exner, Initial residual = 2.85837e-08, Final residual = 7.50018e-11, No Iterations 15
diagonal:  Solving for rho, Initial residual = 0, Final residual = 0, No Iterations 0
DICPBiCGStab:  Solving for theta, Initial residual = 1.42103e-05, Final residual = 2.92957e-21, No Iterations 1
DICPCG:  Solving for Exner, Initial residual = 2.76697e-06, Final residual = 1.89883e-09, No Iterations 16
DICPCG:  Solving for Exner, Initial residual = 1.95159e-09, Final residual = 9.39204e-11, No Iterations 8
diagonal:  Solving for rho, Initial residual = 0, Final residual = 0, No Iterations 0
DICPBiCGStab:  Solving for theta, Initial residual = 6.87577e-08, Final residual = 3.13327e-22, No Iterations 1
time step continuity errors : sum local = 3.2135e-10, global = -3.70391e-11, cumulative = 4.56455e-10
Maximum rho difference fraction = 5.34733e-08
Heat error = -1.27127e-14
ExecutionTime = 130.32 s  ClockTime = 131 s

Time = 118

Courant Number mean: 0.00450976 max: 0.073514 max Ndt = 0.0149875
diagonal:  Solving for rho, Initial residual = 0, Final residual = 0, No Iterations 0
DICPBiCGStab:  Solving for theta, Initial residual = 0.00156659, Final residual = 6.68797e-20, No Iterations 1
DICPCG:  Solving for Exner, Initial residual = 1.0713e-05, Final residual = 8.03738e-09, No Iterations 16
DICPCG:  Solving for Exner, Initial residual = 2.92206e-08, Final residual = 7.68983e-11, No Iterations 15
diagonal:  Solving for rho, Initial residual = 0, Final residual = 0, No Iterations 0
DICPBiCGStab:  Solving for theta, Initial residual = 1.42391e-05, Final residual = 2.37711e-21, No Iterations 1
DICPCG:  Solving for Exner, Initial residual = 2.82463e-06, Final residual = 2.13819e-09, No Iterations 16
DICPCG:  Solving for Exner, Initial residual = 2.19713e-09, Final residual = 6.80951e-11, No Iterations 9
diagonal:  Solving for rho, Initial residual = 0, Final residual = 0, No Iterations 0
DICPBiCGStab:  Solving for theta, Initial residual = 7.68942e-08, Final residual = 1.79395e-22, No Iterations 1
time step continuity errors : sum local = 3.25309e-10, global = -3.93902e-11, cumulative = 4.17064e-10
Maximum rho difference fraction = 5.1017e-08
[...]
time step continuity errors : sum local = 1.19071e-09, global = 1.90323e-10, cumulative = 1.72653e-08
Maximum rho difference fraction = 4.91494e-08
Heat error = -3.01434e-15
ExecutionTime = 1051.61 s  ClockTime = 1052 s

Time = 972

Courant Number mean: 0.0448815 max: 0.33324 max Ndt = 0.026303
diagonal:  Solving for rho, Initial residual = 0, Final residual = 0, No Iterations 0
DICPBiCGStab:  Solving for theta, Initial residual = 0.00762058, Final residual = 2.84981e-19, No Iterations 1
DICPCG:  Solving for Exner, Initial residual = 9.8976e-06, Final residual = 9.06334e-09, No Iterations 16
DICPCG:  Solving for Exner, Initial residual = 4.52039e-07, Final residual = 4.07205e-10, No Iterations 15
diagonal:  Solving for rho, Initial residual = 0, Final residual = 0, No Iterations 0
DICPBiCGStab:  Solving for theta, Initial residual = 0.000222795, Final residual = 8.60684e-21, No Iterations 1
DICPCG:  Solving for Exner, Initial residual = 1.21896e-06, Final residual = 1.1757e-09, No Iterations 16
DICPCG:  Solving for Exner, Initial residual = 9.72882e-09, Final residual = 9.87509e-11, No Iterations 9
diagonal:  Solving for rho, Initial residual = 0, Final residual = 0, No Iterations 0
DICPBiCGStab:  Solving for theta, Initial residual = 9.89281e-06, Final residual = 3.68789e-22, No Iterations 1
time step continuity errors : sum local = 1.18885e-09, global = 1.75637e-10, cumulative = 1.74409e-08
Maximum rho difference fraction = 5.16984e-08
Heat error = -8.51879e-15
ExecutionTime = 1053.68 s  ClockTime = 1054 s

Time = 974

Courant Number mean: 0.0449736 max: 0.332693 max Ndt = 0.0262405
diagonal:  Solving for rho, Initial residual = 0, Final residual = 0, No Iterations 0
DICPBiCGStab:  Solving for theta, Initial residual = 0.00761315, Final residual = 1.66363e-18, No Iterations 1
DICPCG:  Solving for Exner, Initial residual = 9.71641e-06, Final residual = 8.77872e-09, No Iterations 16
DICPCG:  Solving for Exner, Initial residual = 4.51736e-07, Final residual = 4.03877e-10, No Iterations 15
diagonal:  Solving for rho, Initial residual = 0, Final residual = 0, No Iterations 0
DICPBiCGStab:  Solving for theta, Initial residual = 0.000222259, Final residual = 8.07169e-21, No Iterations 1
DICPCG:  Solving for Exner, Initial residual = 1.07768e-06, Final residual = 8.0571e-10, No Iterations 17
DICPCG:  Solving for Exner, Initial residual = 9.43401e-09, Final residual = 7.59698e-11, No Iterations 9
diagonal:  Solving for rho, Initial residual = 0, Final residual = 0, No Iterations 0
DICPBiCGStab:  Solving for theta, Initial residual = 9.88295e-06, Final residual = 3.73597e-22, No Iterations 1
time step continuity errors : sum local = 1.18851e-09, global = 1.68728e-10, cumulative = 1.76096e-08
Maximum rho difference fraction = 5.06728e-08
Heat error = -1.91345e-14
ExecutionTime = 1055.74 s  ClockTime = 1056 s

Time = 976

Courant Number mean: 0.0450632 max: 0.332032 max Ndt = 0.0262508
diagonal:  Solving for rho, Initial residual = 0, Final residual = 0, No Iterations 0
DICPBiCGStab:  Solving for theta, Initial residual = 0.00760658, Final residual = 2.86551e-19, No Iterations 1
DICPCG:  Solving for Exner, Initial residual = 8.71514e-06, Final residual = 8.04294e-09, No Iterations 16
DICPCG:  Solving for Exner, Initial residual = 4.50767e-07, Final residual = 3.96247e-10, No Iterations 15
diagonal:  Solving for rho, Initial residual = 0, Final residual = 0, No Iterations 0
DICPBiCGStab:  Solving for theta, Initial residual = 0.000221325, Final residual = 8.11306e-21, No Iterations 1
DICPCG:  Solving for Exner, Initial residual = 1.37366e-06, Final residual = 9.64715e-10, No Iterations 17
DICPCG:  Solving for Exner, Initial residual = 9.54643e-09, Final residual = 8.13784e-11, No Iterations 9
diagonal:  Solving for rho, Initial residual = 0, Final residual = 0, No Iterations 0
DICPBiCGStab:  Solving for theta, Initial residual = 9.88052e-06, Final residual = 3.96878e-22, No Iterations 1
time step continuity errors : sum local = 1.19025e-09, global = 1.65122e-10, cumulative = 1.77747e-08
Maximum rho difference fraction = 5.0239e-08
Heat error = -1.71686e-14
ExecutionTime = 1057.76 s  ClockTime = 1058 s

Time = 978

Courant Number mean: 0.0451536 max: 0.331265 max Ndt = 0.0262717
diagonal:  Solving for rho, Initial residual = 0, Final residual = 0, No Iterations 0
DICPBiCGStab:  Solving for theta, Initial residual = 0.00761076, Final residual = 2.97279e-19, No Iterations 1
DICPCG:  Solving for Exner, Initial residual = 7.20787e-06, Final residual = 6.88456e-09, No Iterations 16
DICPCG:  Solving for Exner, Initial residual = 4.49477e-07, Final residual = 3.87317e-10, No Iterations 15
diagonal:  Solving for rho, Initial residual = 0, Final residual = 0, No Iterations 0
DICPBiCGStab:  Solving for theta, Initial residual = 0.000220839, Final residual = 7.82701e-20, No Iterations 1
DICPCG:  Solving for Exner, Initial residual = 1.75248e-06, Final residual = 1.16375e-09, No Iterations 17
DICPCG:  Solving for Exner, Initial residual = 9.71074e-09, Final residual = 8.89654e-11, No Iterations 9
diagonal:  Solving for rho, Initial residual = 0, Final residual = 0, No Iterations 0
DICPBiCGStab:  Solving for theta, Initial residual = 9.90608e-06, Final residual = 1.59091e-21, No Iterations 1
time step continuity errors : sum local = 1.19372e-09, global = 1.63919e-10, cumulative = 1.79387e-08
Maximum rho difference fraction = 5.04855e-08
Heat error = -9.96043e-15
ExecutionTime = 1059.82 s  ClockTime = 1061 s

Time = 980

Courant Number mean: 0.0452458 max: 0.330402 max Ndt = 0.0262211
diagonal:  Solving for rho, Initial residual = 0, Final residual = 0, No Iterations 0
DICPBiCGStab:  Solving for theta, Initial residual = 0.00761443, Final residual = 1.64157e-18, No Iterations 1
DICPCG:  Solving for Exner, Initial residual = 5.60333e-06, Final residual = 3.70837e-09, No Iterations 17
DICPCG:  Solving for Exner, Initial residual = 4.47689e-07, Final residual = 3.77079e-10, No Iterations 15
diagonal:  Solving for rho, Initial residual = 0, Final residual = 0, No Iterations 0
DICPBiCGStab:  Solving for theta, Initial residual = 0.000221091, Final residual = 4.65458e-20, No Iterations 1
DICPCG:  Solving for Exner, Initial residual = 2.01222e-06, Final residual = 1.28808e-09, No Iterations 17
DICPCG:  Solving for Exner, Initial residual = 9.80841e-09, Final residual = 9.17551e-11, No Iterations 9
diagonal:  Solving for rho, Initial residual = 0, Final residual = 0, No Iterations 0
DICPBiCGStab:  Solving for theta, Initial residual = 9.90948e-06, Final residual = 3.39739e-22, No Iterations 1
time step continuity errors : sum local = 1.1985e-09, global = 1.63182e-10, cumulative = 1.81018e-08
Maximum rho difference fraction = 5.09307e-08
Heat error = -5.24233e-16
ExecutionTime = 1061.85 s  ClockTime = 1063 s

Time = 982

Courant Number mean: 0.0453409 max: 0.32945 max Ndt = 0.0262246
diagonal:  Solving for rho, Initial residual = 0, Final residual = 0, No Iterations 0
DICPBiCGStab:  Solving for theta, Initial residual = 0.00762078, Final residual = 2.98565e-19, No Iterations 1
DICPCG:  Solving for Exner, Initial residual = 5.58091e-06, Final residual = 5.32935e-09, No Iterations 16
DICPCG:  Solving for Exner, Initial residual = 4.48945e-07, Final residual = 3.9564e-10, No Iterations 15
diagonal:  Solving for rho, Initial residual = 0, Final residual = 0, No Iterations 0
DICPBiCGStab:  Solving for theta, Initial residual = 0.000221484, Final residual = 8.58564e-21, No Iterations 1
DICPCG:  Solving for Exner, Initial residual = 2.13728e-06, Final residual = 2.11545e-09, No Iterations 16
DICPCG:  Solving for Exner, Initial residual = 1.05113e-08, Final residual = 7.85534e-11, No Iterations 10
diagonal:  Solving for rho, Initial residual = 0, Final residual = 0, No Iterations 0
DICPBiCGStab:  Solving for theta, Initial residual = 9.89223e-06, Final residual = 3.88354e-22, No Iterations 1
time step continuity errors : sum local = 1.19444e-09, global = 1.63865e-10, cumulative = 1.82657e-08
Maximum rho difference fraction = 5.08855e-08
Heat error = 7.60138e-15
ExecutionTime = 1063.87 s  ClockTime = 1065 s

Time = 984

Courant Number mean: 0.0454388 max: 0.329456 max Ndt = 0.0261914
diagonal:  Solving for rho, Initial residual = 0, Final residual = 0, No Iterations 0
DICPBiCGStab:  Solving for theta, Initial residual = 0.00762383, Final residual = 2.88313e-19, No Iterations 1
DICPCG:  Solving for Exner, Initial residual = 6.64209e-06, Final residual = 4.76818e-09, No Iterations 16
DICPCG:  Solving for Exner, Initial residual = 4.48619e-07, Final residual = 3.894e-10, No Iterations 15
diagonal:  Solving for rho, Initial residual = 0, Final residual = 0, No Iterations 0
DICPBiCGStab:  Solving for theta, Initial residual = 0.000221499, Final residual = 4.74334e-20, No Iterations 1
DICPCG:  Solving for Exner, Initial residual = 2.1354e-06, Final residual = 1.43595e-09, No Iterations 17
DICPCG:  Solving for Exner, Initial residual = 9.9531e-09, Final residual = 9.07083e-11, No Iterations 9
diagonal:  Solving for rho, Initial residual = 0, Final residual = 0, No Iterations 0
DICPBiCGStab:  Solving for theta, Initial residual = 9.87136e-06, Final residual = 3.68667e-22, No Iterations 1
time step continuity errors : sum local = 1.19966e-09, global = 1.60704e-10, cumulative = 1.84264e-08
Maximum rho difference fraction = 5.03176e-08
Heat error = -1.36301e-14
ExecutionTime = 1065.88 s  ClockTime = 1067 s

Time = 986

Courant Number mean: 0.0455405 max: 0.329513 max Ndt = 0.0262117
diagonal:  Solving for rho, Initial residual = 0, Final residual = 0, No Iterations 0
DICPBiCGStab:  Solving for theta, Initial residual = 0.00762356, Final residual = 1.66696e-18, No Iterations 1
DICPCG:  Solving for Exner, Initial residual = 7.79434e-06, Final residual = 5.61278e-09, No Iterations 16
DICPCG:  Solving for Exner, Initial residual = 4.49578e-07, Final residual = 3.79255e-10, No Iterations 15
diagonal:  Solving for rho, Initial residual = 0, Final residual = 0, No Iterations 0
DICPBiCGStab:  Solving for theta, Initial residual = 0.000221697, Final residual = 4.69353e-20, No Iterations 1
DICPCG:  Solving for Exner, Initial residual = 1.97543e-06, Final residual = 1.3952e-09, No Iterations 17
DICPCG:  Solving for Exner, Initial residual = 9.90634e-09, Final residual = 8.41975e-11, No Iterations 9
diagonal:  Solving for rho, Initial residual = 0, Final residual = 0, No Iterations 0
DICPBiCGStab:  Solving for theta, Initial residual = 9.84979e-06, Final residual = 3.95198e-22, No Iterations 1
time step continuity errors : sum local = 1.2035e-09, global = 1.54694e-10, cumulative = 1.85811e-08
Maximum rho difference fraction = 5.03654e-08
Heat error = -3.93175e-15
ExecutionTime = 1067.86 s  ClockTime = 1069 s

Time = 988

Courant Number mean: 0.0456452 max: 0.329483 max Ndt = 0.0261974
diagonal:  Solving for rho, Initial residual = 0, Final residual = 0, No Iterations 0
DICPBiCGStab:  Solving for theta, Initial residual = 0.00762088, Final residual = 2.71663e-19, No Iterations 1
DICPCG:  Solving for Exner, Initial residual = 8.57991e-06, Final residual = 7.11335e-09, No Iterations 16
DICPCG:  Solving for Exner, Initial residual = 4.50989e-07, Final residual = 3.76543e-10, No Iterations 15
diagonal:  Solving for rho, Initial residual = 0, Final residual = 0, No Iterations 0
DICPBiCGStab:  Solving for theta, Initial residual = 0.000221644, Final residual = 8.36014e-21, No Iterations 1
DICPCG:  Solving for Exner, Initial residual = 1.67159e-06, Final residual = 1.29863e-09, No Iterations 17
DICPCG:  Solving for Exner, Initial residual = 9.8023e-09, Final residual = 8.22138e-11, No Iterations 9
diagonal:  Solving for rho, Initial residual = 0, Final residual = 0, No Iterations 0
DICPBiCGStab:  Solving for theta, Initial residual = 9.83994e-06, Final residual = 2.01341e-21, No Iterations 1
time step continuity errors : sum local = 1.20305e-09, global = 1.45254e-10, cumulative = 1.87264e-08
Maximum rho difference fraction = 5.11535e-08
Heat error = -1.37611e-14
ExecutionTime = 1069.91 s  ClockTime = 1071 s

Time = 990

Courant Number mean: 0.0457526 max: 0.329373 max Ndt = 0.0261266
diagonal:  Solving for rho, Initial residual = 0, Final residual = 0, No Iterations 0
DICPBiCGStab:  Solving for theta, Initial residual = 0.00762439, Final residual = 2.80592e-19, No Iterations 1
DICPCG:  Solving for Exner, Initial residual = 8.90462e-06, Final residual = 8.07462e-09, No Iterations 16
DICPCG:  Solving for Exner, Initial residual = 4.52165e-07, Final residual = 3.7503e-10, No Iterations 15
diagonal:  Solving for rho, Initial residual = 0, Final residual = 0, No Iterations 0
DICPBiCGStab:  Solving for theta, Initial residual = 0.000221198, Final residual = 7.89397e-20, No Iterations 1
DICPCG:  Solving for Exner, Initial residual = 1.47544e-06, Final residual = 1.2687e-09, No Iterations 17
DICPCG:  Solving for Exner, Initial residual = 9.7385e-09, Final residual = 8.85987e-11, No Iterations 9
diagonal:  Solving for rho, Initial residual = 0, Final residual = 0, No Iterations 0
DICPBiCGStab:  Solving for theta, Initial residual = 9.82065e-06, Final residual = 4.13864e-22, No Iterations 1
time step continuity errors : sum local = 1.20044e-09, global = 1.36516e-10, cumulative = 1.88629e-08
Maximum rho difference fraction = 5.2956e-08
Heat error = 1.61202e-14
ExecutionTime = 1071.87 s  ClockTime = 1073 s

Time = 992

Courant Number mean: 0.0458606 max: 0.329189 max Ndt = 0.0261396
diagonal:  Solving for rho, Initial residual = 0, Final residual = 0, No Iterations 0
DICPBiCGStab:  Solving for theta, Initial residual = 0.00762561, Final residual = 2.77003e-19, No Iterations 1
DICPCG:  Solving for Exner, Initial residual = 8.87052e-06, Final residual = 8.07215e-09, No Iterations 16
DICPCG:  Solving for Exner, Initial residual = 4.52445e-07, Final residual = 3.74177e-10, No Iterations 15
diagonal:  Solving for rho, Initial residual = 0, Final residual = 0, No Iterations 0
DICPBiCGStab:  Solving for theta, Initial residual = 0.000220818, Final residual = 8.53468e-21, No Iterations 1
DICPCG:  Solving for Exner, Initial residual = 1.49683e-06, Final residual = 1.20622e-09, No Iterations 17
DICPCG:  Solving for Exner, Initial residual = 9.67783e-09, Final residual = 9.35816e-11, No Iterations 9
diagonal:  Solving for rho, Initial residual = 0, Final residual = 0, No Iterations 0
DICPBiCGStab:  Solving for theta, Initial residual = 9.80308e-06, Final residual = 3.84784e-22, No Iterations 1
time step continuity errors : sum local = 1.19848e-09, global = 1.29589e-10, cumulative = 1.89925e-08
Maximum rho difference fraction = 5.59039e-08
Heat error = 5.11127e-15
ExecutionTime = 1073.89 s  ClockTime = 1075 s

Time = 994

Courant Number mean: 0.0459682 max: 0.328941 max Ndt = 0.0261566
diagonal:  Solving for rho, Initial residual = 0, Final residual = 0, No Iterations 0
DICPBiCGStab:  Solving for theta, Initial residual = 0.00763292, Final residual = 2.75673e-19, No Iterations 1
DICPCG:  Solving for Exner, Initial residual = 8.45836e-06, Final residual = 7.72625e-09, No Iterations 16
DICPCG:  Solving for Exner, Initial residual = 4.52331e-07, Final residual = 3.72137e-10, No Iterations 15
diagonal:  Solving for rho, Initial residual = 0, Final residual = 0, No Iterations 0
DICPBiCGStab:  Solving for theta, Initial residual = 0.000220885, Final residual = 9.41997e-21, No Iterations 1
DICPCG:  Solving for Exner, Initial residual = 1.69857e-06, Final residual = 1.63843e-09, No Iterations 16
DICPCG:  Solving for Exner, Initial residual = 1.01013e-08, Final residual = 7.52318e-11, No Iterations 10
diagonal:  Solving for rho, Initial residual = 0, Final residual = 0, No Iterations 0
DICPBiCGStab:  Solving for theta, Initial residual = 9.78841e-06, Final residual = 3.84364e-22, No Iterations 1
time step continuity errors : sum local = 1.19387e-09, global = 1.28675e-10, cumulative = 1.91211e-08
Maximum rho difference fraction = 6.01523e-08
Heat error = -1.32369e-14
ExecutionTime = 1076.05 s  ClockTime = 1077 s

Time = 996

Courant Number mean: 0.0460744 max: 0.328633 max Ndt = 0.0261236
diagonal:  Solving for rho, Initial residual = 0, Final residual = 0, No Iterations 0
DICPBiCGStab:  Solving for theta, Initial residual = 0.00763884, Final residual = 2.87859e-19, No Iterations 1
DICPCG:  Solving for Exner, Initial residual = 8.17871e-06, Final residual = 7.45276e-09, No Iterations 16
DICPCG:  Solving for Exner, Initial residual = 4.52288e-07, Final residual = 3.68423e-10, No Iterations 15
diagonal:  Solving for rho, Initial residual = 0, Final residual = 0, No Iterations 0
DICPBiCGStab:  Solving for theta, Initial residual = 0.000221355, Final residual = 7.8993e-21, No Iterations 1
DICPCG:  Solving for Exner, Initial residual = 1.87493e-06, Final residual = 1.6348e-09, No Iterations 16
DICPCG:  Solving for Exner, Initial residual = 1.01417e-08, Final residual = 7.35729e-11, No Iterations 10
diagonal:  Solving for rho, Initial residual = 0, Final residual = 0, No Iterations 0
DICPBiCGStab:  Solving for theta, Initial residual = 9.80758e-06, Final residual = 3.85309e-22, No Iterations 1
time step continuity errors : sum local = 1.19116e-09, global = 1.2881e-10, cumulative = 1.92499e-08
Maximum rho difference fraction = 5.98931e-08
Heat error = -1.52028e-14
ExecutionTime = 1078.13 s  ClockTime = 1079 s

Time = 998

Courant Number mean: 0.0461787 max: 0.32827 max Ndt = 0.0261158
diagonal:  Solving for rho, Initial residual = 0, Final residual = 0, No Iterations 0
DICPBiCGStab:  Solving for theta, Initial residual = 0.00764072, Final residual = 3.04862e-19, No Iterations 1
DICPCG:  Solving for Exner, Initial residual = 7.94869e-06, Final residual = 7.39769e-09, No Iterations 16
DICPCG:  Solving for Exner, Initial residual = 4.52476e-07, Final residual = 3.65523e-10, No Iterations 15
diagonal:  Solving for rho, Initial residual = 0, Final residual = 0, No Iterations 0
DICPBiCGStab:  Solving for theta, Initial residual = 0.000221967, Final residual = 8.44838e-21, No Iterations 1
DICPCG:  Solving for Exner, Initial residual = 1.89596e-06, Final residual = 1.43535e-09, No Iterations 16
DICPCG:  Solving for Exner, Initial residual = 9.9918e-09, Final residual = 9.29873e-11, No Iterations 9
diagonal:  Solving for rho, Initial residual = 0, Final residual = 0, No Iterations 0
DICPBiCGStab:  Solving for theta, Initial residual = 9.82401e-06, Final residual = 4.36141e-22, No Iterations 1
time step continuity errors : sum local = 1.19917e-09, global = 1.39332e-10, cumulative = 1.93893e-08
Maximum rho difference fraction = 6.26308e-08
Heat error = 6.55291e-16
ExecutionTime = 1080.18 s  ClockTime = 1081 s

Time = 1000

Courant Number mean: 0.0462822 max: 0.327852 max Ndt = 0.0260704
diagonal:  Solving for rho, Initial residual = 0, Final residual = 0, No Iterations 0
DICPBiCGStab:  Solving for theta, Initial residual = 0.00763651, Final residual = 2.80994e-19, No Iterations 1
DICPCG:  Solving for Exner, Initial residual = 8.02761e-06, Final residual = 7.84354e-09, No Iterations 16
DICPCG:  Solving for Exner, Initial residual = 4.54129e-07, Final residual = 3.66383e-10, No Iterations 15
diagonal:  Solving for rho, Initial residual = 0, Final residual = 0, No Iterations 0
DICPBiCGStab:  Solving for theta, Initial residual = 0.000222012, Final residual = 9.37228e-21, No Iterations 1
DICPCG:  Solving for Exner, Initial residual = 1.74188e-06, Final residual = 1.67017e-09, No Iterations 16
DICPCG:  Solving for Exner, Initial residual = 1.02027e-08, Final residual = 7.27051e-11, No Iterations 10
diagonal:  Solving for rho, Initial residual = 0, Final residual = 0, No Iterations 0
DICPBiCGStab:  Solving for theta, Initial residual = 9.82039e-06, Final residual = 3.96811e-22, No Iterations 1
time step continuity errors : sum local = 1.19801e-09, global = 1.46108e-10, cumulative = 1.95354e-08
Maximum rho difference fraction = 6.00858e-08
Heat error = -9.56725e-15
ExecutionTime = 1082.24 s  ClockTime = 1083 s

End

