/*---------------------------------------------------------------------------*\
  =========                 |
  \\      /  F ield         | OpenFOAM: The Open Source CFD Toolbox
   \\    /   O peration     | Website:  https://openfoam.org
    \\  /    A nd           | Version:  7
     \\/     M anipulation  |
\*---------------------------------------------------------------------------*/
Build  : 7-1ff648926f77
Exec   : boussinesqFoam
Date   : Feb 21 2020
Time   : 18:20:35
Host   : "daniel-XPS-15-9560"
PID    : 26021
I/O    : uncollated
Case   : /media/daniel/STORAGE/OpenFOAM-run/danRun/turbulentExnerFoam/RayleighBenard/RBC_constViscosity/CrankNicolson/CN_1_0_moreHeatTransfer/linearUpwindAdvection/boussinesq/Ra_1e+07_H1_sineIC_Y200_X2000_pressureSolverTest
nProcs : 1
sigFpe : Enabling floating point exception trapping (FOAM_SIGFPE).
fileModificationChecking : Monitoring run-time modified files using timeStampMaster (fileModificationSkew 10)
allowSystemOperations : Allowing user-supplied system call operations

// * * * * * * * * * * * * * * * * * * * * * * * * * * * * * * * * * * * * * //
Create time

Create mesh for time = 0


Reading environmentalProperties
Reading field P

Reading in buoyancy, b

Reading in cell centre velocity, u

Calculating the volume flux

Storing necessary old times and rates of change


Starting time loop

Time = 0.008

Courant Number mean: 0 max: 0
GAMG:  Solving for P, Initial residual = 1, Final residual = 0.00984711365968, No Iterations 7
GAMG:  Solving for P, Initial residual = 0.00489359727883, Final residual = 4.18536969283e-05, No Iterations 14
GAMG:  Solving for P, Initial residual = 0.00133875486119, Final residual = 1.20463928417e-05, No Iterations 6
GAMG:  Solving for P, Initial residual = 1.21675769476e-05, Final residual = 9.56986720005e-07, No Iterations 12
ExecutionTime = 7.36 s  ClockTime = 7 s

fieldMinMax minMaxMagUBP write:
    min(mag(u)) = 0 in cell 0 at location (0.0025 0.01 0)
    max(mag(u)) = 4.27131986273e-06 in cell 174580 at location (2.9025 0.01 0.4375)
    min(b) = -0.0331713284725 in cell 399543 at location (7.7175 0.01 0.9975)
    max(b) = 0.0331713446152 in cell 1803 at location (9.0175 0.01 0.0025)
    min(P) = -0.000237236457433 in cell 1793 at location (8.9675 0.01 0)
    max(P) = 0.00802669801562 in cell 202230 at location (1.1525 0.01 0.5075)

Time = 0.016

Courant Number mean: 2.82698126821e-06 max: 8.41435599409e-06
GAMG:  Solving for P, Initial residual = 0.0295751062265, Final residual = 0.000193435339529, No Iterations 1
GAMG:  Solving for P, Initial residual = 0.000216574126482, Final residual = 1.80270363572e-06, No Iterations 4
GAMG:  Solving for P, Initial residual = 0.00254753571673, Final residual = 1.15290942452e-05, No Iterations 1
GAMG:  Solving for P, Initial residual = 1.13202020092e-05, Final residual = 9.32161142809e-07, No Iterations 5
ExecutionTime = 12.75 s  ClockTime = 13 s

fieldMinMax minMaxMagUBP write:
    min(mag(u)) = 0 in cell 0 at location (0.0025 0.01 0)
    max(mag(u)) = 1.2415013672e-05 in cell 174580 at location (2.9025 0.01 0.4375)
    min(b) = -0.0331345472314 in cell 399543 at location (7.7175 0.01 0.9975)
    max(b) = 0.0331345786676 in cell 1803 at location (9.0175 0.01 0.0025)
    min(P) = -0.000237026800385 in cell 995 at location (4.9775 0.01 0)
    max(P) = 0.00802645336263 in cell 202230 at location (1.1525 0.01 0.5075)

Time = 0.024

Courant Number mean: 8.21169193196e-06 max: 2.4548904349e-05
GAMG:  Solving for P, Initial residual = 0.0262068325399, Final residual = 0.000180893505914, No Iterations 1
GAMG:  Solving for P, Initial residual = 0.000201897925377, Final residual = 1.18806407732e-06, No Iterations 3
GAMG:  Solving for P, Initial residual = 0.00220733801406, Final residual = 1.031976057e-05, No Iterations 1
GAMG:  Solving for P, Initial residual = 1.01421051033e-05, Final residual = 9.73995218276e-07, No Iterations 1
ExecutionTime = 17.9 s  ClockTime = 18 s

fieldMinMax minMaxMagUBP write:
    min(mag(u)) = 0 in cell 0 at location (0.0025 0.01 0)
    max(mag(u)) = 1.98778559101e-05 in cell 191806 at location (9.0325 0.01 0.4775)
    min(b) = -0.0331008341914 in cell 399371 at location (6.8575 0.01 0.9975)
    max(b) = 0.0331007429451 in cell 1803 at location (9.0175 0.01 0.0025)
    min(P) = -0.000239214014051 in cell 995 at location (4.9775 0.01 0)
    max(P) = 0.00802417080862 in cell 202230 at location (1.1525 0.01 0.5075)

Time = 0.032

Courant Number mean: 1.31084434536e-05 max: 3.93836024905e-05
GAMG:  Solving for P, Initial residual = 0.0232825657971, Final residual = 0.000169026790857, No Iterations 1
GAMG:  Solving for P, Initial residual = 0.000187986080039, Final residual = 1.43447752151e-06, No Iterations 3
GAMG:  Solving for P, Initial residual = 0.00192080710114, Final residual = 9.51293558015e-06, No Iterations 1
GAMG:  Solving for P, Initial residual = 9.36321856192e-06, Final residual = 8.27818016232e-07, No Iterations 2
ExecutionTime = 23.11 s  ClockTime = 24 s

fieldMinMax minMaxMagUBP write:
    min(mag(u)) = 0 in cell 0 at location (0.0025 0.01 0)
    max(mag(u)) = 2.67874722533e-05 in cell 191806 at location (9.0325 0.01 0.4775)
    min(b) = -0.0330697677867 in cell 399371 at location (6.8575 0.01 0.9975)
    max(b) = 0.0330693573255 in cell 1803 at location (9.0175 0.01 0.0025)
    min(P) = -0.000236457781294 in cell 995 at location (4.9775 0.01 0)
    max(P) = 0.00802651307696 in cell 202230 at location (1.1525 0.01 0.5075)

Time = 0.04

Courant Number mean: 1.76022788208e-05 max: 5.3082242477e-05
GAMG:  Solving for P, Initial residual = 0.0205956996956, Final residual = 0.000158347373157, No Iterations 1
GAMG:  Solving for P, Initial residual = 0.000175089112093, Final residual = 1.3211146314e-06, No Iterations 3
GAMG:  Solving for P, Initial residual = 0.00166186627755, Final residual = 8.67019324796e-06, No Iterations 1
GAMG:  Solving for P, Initial residual = 8.54753948478e-06, Final residual = 7.71741182195e-07, No Iterations 2
ExecutionTime = 28.3 s  ClockTime = 29 s

fieldMinMax minMaxMagUBP write:
    min(mag(u)) = 0 in cell 0 at location (0.0025 0.01 0)
    max(mag(u)) = 3.31802999878e-05 in cell 191806 at location (9.0325 0.01 0.4775)
    min(b) = -0.0330410350233 in cell 399371 at location (6.8575 0.01 0.9975)
    max(b) = 0.0330401322456 in cell 1803 at location (9.0175 0.01 0.0025)
    min(P) = -0.000238359497635 in cell 1793 at location (8.9675 0.01 0)
    max(P) = 0.00802470282806 in cell 202230 at location (1.1525 0.01 0.5075)

Time = 0.048

Courant Number mean: 2.17649500109e-05 max: 6.57847228484e-05
GAMG:  Solving for P, Initial residual = 0.0180997777934, Final residual = 0.000146323394201, No Iterations 1
GAMG:  Solving for P, Initial residual = 0.00016068954422, Final residual = 8.34121472388e-07, No Iterations 3
GAMG:  Solving for P, Initial residual = 0.00142727487422, Final residual = 7.72667299876e-06, No Iterations 1
GAMG:  Solving for P, Initial residual = 7.62536030811e-06, Final residual = 5.88967934939e-07, No Iterations 1
ExecutionTime = 33.5 s  ClockTime = 34 s

fieldMinMax minMaxMagUBP write:
    min(mag(u)) = 0 in cell 0 at location (0.0025 0.01 0)
    max(mag(u)) = 3.91123578395e-05 in cell 191806 at location (9.0325 0.01 0.4775)
    min(b) = -0.0330143925233 in cell 399371 at location (6.8575 0.01 0.9975)
    max(b) = 0.0330128325072 in cell 1803 at location (9.0175 0.01 0.0025)
    min(P) = -0.000237061290438 in cell 1792 at location (8.9625 0.01 0)
    max(P) = 0.00802597201616 in cell 202230 at location (1.1525 0.01 0.5075)

Time = 0.056

Courant Number mean: 2.56569028635e-05 max: 7.76135498604e-05
GAMG:  Solving for P, Initial residual = 0.0158222628047, Final residual = 0.000135664708765, No Iterations 1
GAMG:  Solving for P, Initial residual = 0.000148090817324, Final residual = 3.10881425511e-07, No Iterations 3
GAMG:  Solving for P, Initial residual = 0.00122277265717, Final residual = 6.95379600041e-06, No Iterations 1
GAMG:  Solving for P, Initial residual = 6.86949965531e-06, Final residual = 5.76229485995e-07, No Iterations 1
ExecutionTime = 38.64 s  ClockTime = 39 s

fieldMinMax minMaxMagUBP write:
    min(mag(u)) = 0 in cell 0 at location (0.0025 0.01 0)
    max(mag(u)) = 4.48683244551e-05 in cell 177213 at location (6.0675 0.01 0.4425)
    min(b) = -0.0329896331609 in cell 399371 at location (6.8575 0.01 0.9975)
    max(b) = 0.0329872666916 in cell 1803 at location (9.0175 0.01 0.0025)
    min(P) = -0.000238107240972 in cell 995 at location (4.9775 0.01 0)
    max(P) = 0.00802441607549 in cell 202230 at location (1.1525 0.01 0.5075)

Time = 0.064

Courant Number mean: 2.93285536349e-05 max: 8.86768533346e-05
GAMG:  Solving for P, Initial residual = 0.013806510505, Final residual = 0.000124505580231, No Iterations 1
GAMG:  Solving for P, Initial residual = 0.000135267233417, Final residual = 6.96874363504e-07, No Iterations 3
GAMG:  Solving for P, Initial residual = 0.00104696926333, Final residual = 6.20103354816e-06, No Iterations 1
GAMG:  Solving for P, Initial residual = 6.13010479847e-06, Final residual = 5.24456306361e-07, No Iterations 1
ExecutionTime = 43.79 s  ClockTime = 45 s

fieldMinMax minMaxMagUBP write:
    min(mag(u)) = 0 in cell 0 at location (0.0025 0.01 0)
    max(mag(u)) = 5.05592418525e-05 in cell 177213 at location (6.0675 0.01 0.4425)
    min(b) = -0.0329665792071 in cell 399371 at location (6.8575 0.01 0.9975)
    max(b) = 0.0329632770333 in cell 1803 at location (9.0175 0.01 0.0025)
    min(P) = -0.000237268893263 in cell 1792 at location (8.9625 0.01 0)
    max(P) = 0.00802524319087 in cell 202231 at location (1.1575 0.01 0.5075)

Time = 0.072

Courant Number mean: 3.28231264984e-05 max: 9.90697523646e-05
GAMG:  Solving for P, Initial residual = 0.0120638941843, Final residual = 0.000115216448477, No Iterations 1
GAMG:  Solving for P, Initial residual = 0.000124674632896, Final residual = 2.66458529925e-07, No Iterations 3
GAMG:  Solving for P, Initial residual = 0.000896539416009, Final residual = 5.53860414238e-06, No Iterations 1
GAMG:  Solving for P, Initial residual = 5.47816091422e-06, Final residual = 5.33175823685e-07, No Iterations 1
ExecutionTime = 48.95 s  ClockTime = 50 s

fieldMinMax minMaxMagUBP write:
    min(mag(u)) = 0 in cell 0 at location (0.0025 0.01 0)
    max(mag(u)) = 5.60077971371e-05 in cell 177213 at location (6.0675 0.01 0.4425)
    min(b) = -0.0329450768959 in cell 399371 at location (6.8575 0.01 0.9975)
    max(b) = 0.0329407316868 in cell 1803 at location (9.0175 0.01 0.0025)
    min(P) = -0.000238242385297 in cell 1792 at location (8.9625 0.01 0)
    max(P) = 0.00802441865754 in cell 202231 at location (1.1575 0.01 0.5075)

Time = 0.08

Courant Number mean: 3.61752129768e-05 max: 0.000108876062105
GAMG:  Solving for P, Initial residual = 0.0105887316412, Final residual = 0.000105692361461, No Iterations 1
GAMG:  Solving for P, Initial residual = 0.000114010045696, Final residual = 5.70143599091e-07, No Iterations 3
GAMG:  Solving for P, Initial residual = 0.000767576629662, Final residual = 4.93918770242e-06, No Iterations 1
GAMG:  Solving for P, Initial residual = 4.88775986455e-06, Final residual = 2.64433250641e-07, No Iterations 1
ExecutionTime = 54.11 s  ClockTime = 55 s

fieldMinMax minMaxMagUBP write:
    min(mag(u)) = 0 in cell 0 at location (0.0025 0.01 0)
    max(mag(u)) = 6.12367722082e-05 in cell 177213 at location (6.0675 0.01 0.4425)
    min(b) = -0.0329249921041 in cell 399371 at location (6.8575 0.01 0.9975)
    max(b) = 0.0329195188125 in cell 1803 at location (9.0175 0.01 0.0025)
    min(P) = -0.000237300705821 in cell 1792 at location (8.9625 0.01 0)
    max(P) = 0.00802516779206 in cell 202231 at location (1.1575 0.01 0.5075)

End

