/*---------------------------------------------------------------------------*\
| =========                 |                                                 |
| \\      /  F ield         | OpenFOAM: The Open Source CFD Toolbox           |
|  \\    /   O peration     | Version:  dev                                   |
|   \\  /    A nd           | Web:      www.OpenFOAM.org                      |
|    \\/     M anipulation  |                                                 |
\*---------------------------------------------------------------------------*/
Build  : dev-c1b380c8677a
Exec   : exnerFoamTurbulence
Date   : May 12 2018
Time   : 10:13:09
Host   : "daniel-XPS-15-9560"
PID    : 14325
I/O    : uncollated
Case   : /home/daniel/OpenFOAM/daniel-dev/run/danCases/exnerFoamTurbulence/standardWithTurbulence/standard
nProcs : 1
sigFpe : Enabling floating point exception trapping (FOAM_SIGFPE).
fileModificationChecking : Monitoring run-time modified files using timeStampMaster (fileModificationSkew 10)
allowSystemOperations : Allowing user-supplied system call operations

// * * * * * * * * * * * * * * * * * * * * * * * * * * * * * * * * * * * * * //
Create time

Create mesh for time = 0


Reading environmentalProperties
Reading thermophysical properties

Cp = 1005 speedSound = speedSound [0 1 -1 0 0 0 0] 347.745 kappa = kappa [0 0 0 0 0 0 0] 0.286267 R = 287.698 RR = 8314.47 Cv = Cv [0 2 -2 -1 0 0 0] 717.302
Maximum acousitic Courant number = ((max(deltaCoeffs)*deltaT)*speedSound) [0 0 0 0 0 0 0] 13.9098
Making the boundary faces orthogonal
Reading thermophysical properties

Selecting thermodynamics package 
{
    type            hePsiThermo;
    energy          sensibleInternalEnergy;
    specie          specie;
    equationOfState perfectGas;
    thermo          hConst;
    transport       const;
    mixture         pureMixture;
}

Reading field Uf

Reading field Exner

Reading field theta

Maximum sponge value = 0
Creating field rho

Calculating face flux field phi

Creating turbulence model

Selecting turbulence model type LES
Selecting LES turbulence model Smagorinsky
Selecting LES delta type cubeRootVol
--> FOAM Warning : 
    From function void Foam::LESModels::cubeRootVolDelta::calcDelta()
    in file LES/LESdeltas/cubeRootVolDelta/cubeRootVolDelta.C at line 55
    Case is 2D, LES is not strictly applicable

SmagorinskyCoeffs
{
    Ck              0.094;
    Ce              1.048;
}

Initialising total energy file energy.dat

KE dimensions = [1 -1 -2 0 0 0 0]
internalEnergy dimensions = [1 -1 -2 0 0 0 0]
potentialEnergy dimensions = [1 -1 -2 0 0 0 0]
Vtot = sum(V) [0 3 0 0 0 0 0] 4e+11
KEInitTot = (domainIntegrate(KE)|sum(V)) [1 -1 -2 0 0 0 0] 0
internalInitTot = (domainIntegrate(internalEnergy)|sum(V)) [1 -1 -2 0 0 0 0] 84513.4
potentialInitTot = (domainIntegrate(potentialEnergy)|sum(V)) [1 -1 -2 0 0 0 0] 31359.8

Starting time loop

Time = 2

Courant Number mean: 0 max: 0 max Ndt = 0.0142514
diagonal:  Solving for rho, Initial residual = 0, Final residual = 0, No Iterations 0
DICPBiCGStab:  Solving for theta, Initial residual = 1.76338e-13, Final residual = 1.76338e-13, No Iterations 0
DICPCG:  Solving for Exner, Initial residual = 4.63612e-06, Final residual = 3.2432e-09, No Iterations 18
DICPCG:  Solving for Exner, Initial residual = 3.39476e-09, Final residual = 6.75254e-11, No Iterations 10
diagonal:  Solving for rho, Initial residual = 0, Final residual = 0, No Iterations 0
DICPBiCGStab:  Solving for theta, Initial residual = 1.7721e-05, Final residual = 3.88224e-21, No Iterations 1
DICPCG:  Solving for Exner, Initial residual = 2.16627e-06, Final residual = 1.53099e-09, No Iterations 16
DICPCG:  Solving for Exner, Initial residual = 1.55587e-09, Final residual = 9.81081e-11, No Iterations 7
diagonal:  Solving for rho, Initial residual = 0, Final residual = 0, No Iterations 0
DICPBiCGStab:  Solving for theta, Initial residual = 8.77843e-07, Final residual = 5.81663e-22, No Iterations 1
time step continuity errors : sum local = 4.33238e-11, global = 1.2878e-11, cumulative = 1.2878e-11
Maximum rho difference fraction = 8.07539e-10
Heat error = 1.03536e-14
ExecutionTime = 1.32 s  ClockTime = 1 s

Time = 4

Courant Number mean: 2.72321e-05 max: 0.00230705 max Ndt = 0.014252
diagonal:  Solving for rho, Initial residual = 0, Final residual = 0, No Iterations 0
DICPBiCGStab:  Solving for theta, Initial residual = 3.52883e-05, Final residual = 2.31604e-15, No Iterations 1
DICPCG:  Solving for Exner, Initial residual = 6.36704e-06, Final residual = 4.30671e-09, No Iterations 17
DICPCG:  Solving for Exner, Initial residual = 4.60503e-09, Final residual = 9.23405e-11, No Iterations 10
diagonal:  Solving for rho, Initial residual = 0, Final residual = 0, No Iterations 0
DICPBiCGStab:  Solving for theta, Initial residual = 1.83684e-05, Final residual = 1.2202e-15, No Iterations 1
DICPCG:  Solving for Exner, Initial residual = 1.40031e-06, Final residual = 1.25114e-09, No Iterations 16
DICPCG:  Solving for Exner, Initial residual = 1.2572e-09, Final residual = 8.12288e-11, No Iterations 7
diagonal:  Solving for rho, Initial residual = 0, Final residual = 0, No Iterations 0
DICPBiCGStab:  Solving for theta, Initial residual = 4.15275e-07, Final residual = 2.88371e-17, No Iterations 1
time step continuity errors : sum local = 5.14885e-11, global = 2.19288e-11, cumulative = 3.48068e-11
Maximum rho difference fraction = 3.74615e-09
Heat error = -8.12561e-15
ExecutionTime = 2.34 s  ClockTime = 2 s

Time = 6

Courant Number mean: 6.20082e-05 max: 0.00394445 max Ndt = 0.0142535
diagonal:  Solving for rho, Initial residual = 0, Final residual = 0, No Iterations 0
DICPBiCGStab:  Solving for theta, Initial residual = 7.28469e-05, Final residual = 7.89484e-15, No Iterations 1
DICPCG:  Solving for Exner, Initial residual = 6.66254e-06, Final residual = 5.34548e-09, No Iterations 16
DICPCG:  Solving for Exner, Initial residual = 5.56295e-09, Final residual = 6.94891e-11, No Iterations 11
diagonal:  Solving for rho, Initial residual = 0, Final residual = 0, No Iterations 0
DICPBiCGStab:  Solving for theta, Initial residual = 1.73931e-05, Final residual = 1.97758e-15, No Iterations 1
DICPCG:  Solving for Exner, Initial residual = 2.10743e-06, Final residual = 1.9001e-09, No Iterations 15
DICPCG:  Solving for Exner, Initial residual = 2.00272e-09, Final residual = 8.77133e-11, No Iterations 8
diagonal:  Solving for rho, Initial residual = 0, Final residual = 0, No Iterations 0
DICPBiCGStab:  Solving for theta, Initial residual = 7.79208e-07, Final residual = 8.75667e-17, No Iterations 1
time step continuity errors : sum local = 7.04088e-11, global = 3.29574e-11, cumulative = 6.77643e-11
Maximum rho difference fraction = 7.87289e-09
Heat error = -1.00915e-14
ExecutionTime = 3.36 s  ClockTime = 3 s

Time = 8

Courant Number mean: 0.000108165 max: 0.00497376 max Ndt = 0.0142554
diagonal:  Solving for rho, Initial residual = 0, Final residual = 0, No Iterations 0
DICPBiCGStab:  Solving for theta, Initial residual = 0.000108598, Final residual = 8.70555e-15, No Iterations 1
DICPCG:  Solving for Exner, Initial residual = 7.63712e-06, Final residual = 5.80183e-09, No Iterations 16
DICPCG:  Solving for Exner, Initial residual = 6.29349e-09, Final residual = 8.20872e-11, No Iterations 11
diagonal:  Solving for rho, Initial residual = 0, Final residual = 0, No Iterations 0
DICPBiCGStab:  Solving for theta, Initial residual = 1.48373e-05, Final residual = 1.32392e-15, No Iterations 1
DICPCG:  Solving for Exner, Initial residual = 2.76221e-06, Final residual = 2.10698e-09, No Iterations 15
DICPCG:  Solving for Exner, Initial residual = 2.15895e-09, Final residual = 9.87193e-11, No Iterations 8
diagonal:  Solving for rho, Initial residual = 0, Final residual = 0, No Iterations 0
DICPBiCGStab:  Solving for theta, Initial residual = 6.19857e-07, Final residual = 5.39921e-17, No Iterations 1
time step continuity errors : sum local = 9.36641e-11, global = 4.43506e-11, cumulative = 1.12115e-10
Maximum rho difference fraction = 5.59144e-09
Heat error = -5.37339e-15
ExecutionTime = 4.38 s  ClockTime = 4 s

Time = 10

Courant Number mean: 0.00016669 max: 0.00581214 max Ndt = 0.0142573
diagonal:  Solving for rho, Initial residual = 0, Final residual = 0, No Iterations 0
DICPBiCGStab:  Solving for theta, Initial residual = 0.000138404, Final residual = 1.13787e-14, No Iterations 1
DICPCG:  Solving for Exner, Initial residual = 9.32878e-06, Final residual = 7.21496e-09, No Iterations 16
DICPCG:  Solving for Exner, Initial residual = 7.75157e-09, Final residual = 9.50565e-11, No Iterations 11
diagonal:  Solving for rho, Initial residual = 0, Final residual = 0, No Iterations 0
DICPBiCGStab:  Solving for theta, Initial residual = 1.21253e-05, Final residual = 1.01339e-15, No Iterations 1
DICPCG:  Solving for Exner, Initial residual = 2.94096e-06, Final residual = 2.37721e-09, No Iterations 15
DICPCG:  Solving for Exner, Initial residual = 2.46208e-09, Final residual = 7.13793e-11, No Iterations 9
diagonal:  Solving for rho, Initial residual = 0, Final residual = 0, No Iterations 0
DICPBiCGStab:  Solving for theta, Initial residual = 4.74455e-07, Final residual = 3.76222e-17, No Iterations 1
time step continuity errors : sum local = 1.02081e-10, global = 5.27179e-11, cumulative = 1.64833e-10
Maximum rho difference fraction = 8.87733e-09
Heat error = -7.07715e-15
ExecutionTime = 5.4 s  ClockTime = 5 s

Time = 12

Courant Number mean: 0.000235188 max: 0.0067969 max Ndt = 0.0142593
diagonal:  Solving for rho, Initial residual = 0, Final residual = 0, No Iterations 0
DICPBiCGStab:  Solving for theta, Initial residual = 0.000161741, Final residual = 1.81727e-14, No Iterations 1
DICPCG:  Solving for Exner, Initial residual = 1.03289e-05, Final residual = 7.81458e-09, No Iterations 16
DICPCG:  Solving for Exner, Initial residual = 9.06068e-09, Final residual = 8.10164e-11, No Iterations 12
diagonal:  Solving for rho, Initial residual = 0, Final residual = 0, No Iterations 0
DICPBiCGStab:  Solving for theta, Initial residual = 1.09337e-05, Final residual = 1.24957e-15, No Iterations 1
DICPCG:  Solving for Exner, Initial residual = 3.04431e-06, Final residual = 2.23084e-09, No Iterations 15
DICPCG:  Solving for Exner, Initial residual = 2.40114e-09, Final residual = 6.61841e-11, No Iterations 9
diagonal:  Solving for rho, Initial residual = 0, Final residual = 0, No Iterations 0
DICPBiCGStab:  Solving for theta, Initial residual = 6.01492e-07, Final residual = 6.38294e-17, No Iterations 1
time step continuity errors : sum local = 1.13001e-10, global = 6.06394e-11, cumulative = 2.25472e-10
Maximum rho difference fraction = 1.21286e-08
Heat error = -9.4362e-15
ExecutionTime = 6.41 s  ClockTime = 6 s

Time = 14

Courant Number mean: 0.000309756 max: 0.00802723 max Ndt = 0.0142618
diagonal:  Solving for rho, Initial residual = 0, Final residual = 0, No Iterations 0
DICPBiCGStab:  Solving for theta, Initial residual = 0.000182416, Final residual = 2.63327e-14, No Iterations 1
DICPCG:  Solving for Exner, Initial residual = 1.09862e-05, Final residual = 8.22768e-09, No Iterations 16
DICPCG:  Solving for Exner, Initial residual = 9.94945e-09, Final residual = 7.98838e-11, No Iterations 12
diagonal:  Solving for rho, Initial residual = 0, Final residual = 0, No Iterations 0
DICPBiCGStab:  Solving for theta, Initial residual = 1.15427e-05, Final residual = 1.6862e-15, No Iterations 1
DICPCG:  Solving for Exner, Initial residual = 3.04955e-06, Final residual = 2.18288e-09, No Iterations 15
DICPCG:  Solving for Exner, Initial residual = 2.22828e-09, Final residual = 6.41622e-11, No Iterations 9
diagonal:  Solving for rho, Initial residual = 0, Final residual = 0, No Iterations 0
DICPBiCGStab:  Solving for theta, Initial residual = 3.88773e-07, Final residual = 6.14343e-17, No Iterations 1
time step continuity errors : sum local = 1.22519e-10, global = 6.30558e-11, cumulative = 2.88528e-10
Maximum rho difference fraction = 1.33378e-08
Heat error = -7.99456e-15
ExecutionTime = 7.43 s  ClockTime = 7 s

Time = 16

Courant Number mean: 0.000386561 max: 0.00938228 max Ndt = 0.0142649
diagonal:  Solving for rho, Initial residual = 0, Final residual = 0, No Iterations 0
DICPBiCGStab:  Solving for theta, Initial residual = 0.00020494, Final residual = 4.15393e-14, No Iterations 1
DICPCG:  Solving for Exner, Initial residual = 1.08251e-05, Final residual = 7.88277e-09, No Iterations 16
DICPCG:  Solving for Exner, Initial residual = 9.78479e-09, Final residual = 8.07874e-11, No Iterations 12
diagonal:  Solving for rho, Initial residual = 0, Final residual = 0, No Iterations 0
DICPBiCGStab:  Solving for theta, Initial residual = 1.28412e-05, Final residual = 2.6077e-15, No Iterations 1
DICPCG:  Solving for Exner, Initial residual = 3.20862e-06, Final residual = 2.46087e-09, No Iterations 15
DICPCG:  Solving for Exner, Initial residual = 2.51669e-09, Final residual = 7.37854e-11, No Iterations 9
diagonal:  Solving for rho, Initial residual = 0, Final residual = 0, No Iterations 0
DICPBiCGStab:  Solving for theta, Initial residual = 2.26831e-07, Final residual = 4.61174e-17, No Iterations 1
time step continuity errors : sum local = 1.26952e-10, global = 6.08214e-11, cumulative = 3.49349e-10
Maximum rho difference fraction = 1.16043e-08
Heat error = 2.62117e-16
ExecutionTime = 8.46 s  ClockTime = 8 s

Time = 18

Courant Number mean: 0.00046352 max: 0.010698 max Ndt = 0.0142686
diagonal:  Solving for rho, Initial residual = 0, Final residual = 0, No Iterations 0
DICPBiCGStab:  Solving for theta, Initial residual = 0.000230906, Final residual = 6.54764e-14, No Iterations 1
DICPCG:  Solving for Exner, Initial residual = 1.00702e-05, Final residual = 7.05612e-09, No Iterations 16
DICPCG:  Solving for Exner, Initial residual = 9.11582e-09, Final residual = 7.92292e-11, No Iterations 12
diagonal:  Solving for rho, Initial residual = 0, Final residual = 0, No Iterations 0
DICPBiCGStab:  Solving for theta, Initial residual = 1.35599e-05, Final residual = 3.86346e-15, No Iterations 1
DICPCG:  Solving for Exner, Initial residual = 3.61578e-06, Final residual = 3.48536e-09, No Iterations 15
DICPCG:  Solving for Exner, Initial residual = 3.54013e-09, Final residual = 8.40943e-11, No Iterations 9
diagonal:  Solving for rho, Initial residual = 0, Final residual = 0, No Iterations 0
DICPBiCGStab:  Solving for theta, Initial residual = 3.16298e-07, Final residual = 8.41018e-17, No Iterations 1
time step continuity errors : sum local = 1.24058e-10, global = 5.58469e-11, cumulative = 4.05196e-10
Maximum rho difference fraction = 1.17265e-08
Heat error = -2.35905e-15
ExecutionTime = 9.47 s  ClockTime = 10 s

Time = 20

Courant Number mean: 0.00054123 max: 0.0119456 max Ndt = 0.0142729
diagonal:  Solving for rho, Initial residual = 0, Final residual = 0, No Iterations 0
DICPBiCGStab:  Solving for theta, Initial residual = 0.000258644, Final residual = 9.49508e-14, No Iterations 1
DICPCG:  Solving for Exner, Initial residual = 1.12359e-05, Final residual = 7.66991e-09, No Iterations 16
DICPCG:  Solving for Exner, Initial residual = 9.89538e-09, Final residual = 7.59577e-11, No Iterations 12
diagonal:  Solving for rho, Initial residual = 0, Final residual = 0, No Iterations 0
DICPBiCGStab:  Solving for theta, Initial residual = 1.32928e-05, Final residual = 4.94728e-15, No Iterations 1
DICPCG:  Solving for Exner, Initial residual = 3.76231e-06, Final residual = 3.68478e-09, No Iterations 15
DICPCG:  Solving for Exner, Initial residual = 3.71601e-09, Final residual = 6.47359e-11, No Iterations 10
diagonal:  Solving for rho, Initial residual = 0, Final residual = 0, No Iterations 0
DICPBiCGStab:  Solving for theta, Initial residual = 2.01336e-07, Final residual = 8.3374e-17, No Iterations 1
time step continuity errors : sum local = 1.28674e-10, global = 5.17967e-11, cumulative = 4.56993e-10
Maximum rho difference fraction = 1.15121e-08
Heat error = 2.09693e-15
ExecutionTime = 10.51 s  ClockTime = 11 s

Time = 22

Courant Number mean: 0.000624328 max: 0.0131695 max Ndt = 0.0142776
diagonal:  Solving for rho, Initial residual = 0, Final residual = 0, No Iterations 0
DICPBiCGStab:  Solving for theta, Initial residual = 0.000285604, Final residual = 1.28036e-13, No Iterations 1
DICPCG:  Solving for Exner, Initial residual = 1.24955e-05, Final residual = 8.35189e-09, No Iterations 16
DICPCG:  Solving for Exner, Initial residual = 1.0653e-08, Final residual = 9.6372e-11, No Iterations 12
diagonal:  Solving for rho, Initial residual = 0, Final residual = 0, No Iterations 0
DICPBiCGStab:  Solving for theta, Initial residual = 1.25009e-05, Final residual = 5.69944e-15, No Iterations 1
DICPCG:  Solving for Exner, Initial residual = 3.5355e-06, Final residual = 3.48529e-09, No Iterations 15
DICPCG:  Solving for Exner, Initial residual = 3.56695e-09, Final residual = 5.99835e-11, No Iterations 10
diagonal:  Solving for rho, Initial residual = 0, Final residual = 0, No Iterations 0
DICPBiCGStab:  Solving for theta, Initial residual = 9.8107e-08, Final residual = 4.1458e-17, No Iterations 1
time step continuity errors : sum local = 1.3299e-10, global = 4.80951e-11, cumulative = 5.05088e-10
Maximum rho difference fraction = 1.10595e-08
Heat error = 1.04847e-14
ExecutionTime = 11.57 s  ClockTime = 12 s

Time = 24

Courant Number mean: 0.000721867 max: 0.0143926 max Ndt = 0.0142827
diagonal:  Solving for rho, Initial residual = 0, Final residual = 0, No Iterations 0
DICPBiCGStab:  Solving for theta, Initial residual = 0.000310555, Final residual = 1.66203e-13, No Iterations 1
DICPCG:  Solving for Exner, Initial residual = 1.28432e-05, Final residual = 1.22028e-08, No Iterations 15
DICPCG:  Solving for Exner, Initial residual = 1.53131e-08, Final residual = 8.00095e-11, No Iterations 13
diagonal:  Solving for rho, Initial residual = 0, Final residual = 0, No Iterations 0
DICPBiCGStab:  Solving for theta, Initial residual = 1.18389e-05, Final residual = 6.41713e-15, No Iterations 1
DICPCG:  Solving for Exner, Initial residual = 3.74279e-06, Final residual = 2.39582e-09, No Iterations 16
DICPCG:  Solving for Exner, Initial residual = 2.42036e-09, Final residual = 7.17759e-11, No Iterations 9
diagonal:  Solving for rho, Initial residual = 0, Final residual = 0, No Iterations 0
DICPBiCGStab:  Solving for theta, Initial residual = 1.54967e-07, Final residual = 7.14596e-17, No Iterations 1
time step continuity errors : sum local = 1.29334e-10, global = 4.37861e-11, cumulative = 5.48874e-10
Maximum rho difference fraction = 1.09285e-08
Heat error = -5.37339e-15
ExecutionTime = 12.63 s  ClockTime = 13 s

Time = 26

Courant Number mean: 0.000826287 max: 0.0155936 max Ndt = 0.0142883
diagonal:  Solving for rho, Initial residual = 0, Final residual = 0, No Iterations 0
DICPBiCGStab:  Solving for theta, Initial residual = 0.000333932, Final residual = 2.12404e-13, No Iterations 1
DICPCG:  Solving for Exner, Initial residual = 1.32784e-05, Final residual = 1.23978e-08, No Iterations 15
DICPCG:  Solving for Exner, Initial residual = 1.63157e-08, Final residual = 8.25559e-11, No Iterations 13
diagonal:  Solving for rho, Initial residual = 0, Final residual = 0, No Iterations 0
DICPBiCGStab:  Solving for theta, Initial residual = 1.16354e-05, Final residual = 7.42698e-15, No Iterations 1
DICPCG:  Solving for Exner, Initial residual = 4.11688e-06, Final residual = 2.68922e-09, No Iterations 16
DICPCG:  Solving for Exner, Initial residual = 2.7055e-09, Final residual = 8.18859e-11, No Iterations 9
diagonal:  Solving for rho, Initial residual = 0, Final residual = 0, No Iterations 0
DICPBiCGStab:  Solving for theta, Initial residual = 1.58802e-07, Final residual = 9.5087e-17, No Iterations 1
time step continuity errors : sum local = 1.35606e-10, global = 3.90231e-11, cumulative = 5.87897e-10
Maximum rho difference fraction = 1.08116e-08
Heat error = 2.62117e-16
ExecutionTime = 13.68 s  ClockTime = 14 s

Time = 28

Courant Number mean: 0.000934621 max: 0.0167464 max Ndt = 0.0142942
diagonal:  Solving for rho, Initial residual = 0, Final residual = 0, No Iterations 0
DICPBiCGStab:  Solving for theta, Initial residual = 0.000356886, Final residual = 2.66943e-13, No Iterations 1
DICPCG:  Solving for Exner, Initial residual = 1.43596e-05, Final residual = 1.40519e-08, No Iterations 15
DICPCG:  Solving for Exner, Initial residual = 1.82397e-08, Final residual = 9.44733e-11, No Iterations 13
diagonal:  Solving for rho, Initial residual = 0, Final residual = 0, No Iterations 0
DICPBiCGStab:  Solving for theta, Initial residual = 1.18712e-05, Final residual = 8.81141e-15, No Iterations 1
DICPCG:  Solving for Exner, Initial residual = 4.24718e-06, Final residual = 3.88373e-09, No Iterations 15
DICPCG:  Solving for Exner, Initial residual = 3.92799e-09, Final residual = 7.03106e-11, No Iterations 10
diagonal:  Solving for rho, Initial residual = 0, Final residual = 0, No Iterations 0
DICPBiCGStab:  Solving for theta, Initial residual = 1.12127e-07, Final residual = 8.47229e-17, No Iterations 1
time step continuity errors : sum local = 1.40746e-10, global = 3.5418e-11, cumulative = 6.23315e-10
Maximum rho difference fraction = 1.09321e-08
Heat error = -1.44164e-15
ExecutionTime = 14.72 s  ClockTime = 15 s

Time = 30

Courant Number mean: 0.00104438 max: 0.0178586 max Ndt = 0.0143006
diagonal:  Solving for rho, Initial residual = 0, Final residual = 0, No Iterations 0
DICPBiCGStab:  Solving for theta, Initial residual = 0.000380404, Final residual = 3.27752e-13, No Iterations 1
DICPCG:  Solving for Exner, Initial residual = 1.49947e-05, Final residual = 1.37589e-08, No Iterations 15
DICPCG:  Solving for Exner, Initial residual = 1.82775e-08, Final residual = 9.88106e-11, No Iterations 13
diagonal:  Solving for rho, Initial residual = 0, Final residual = 0, No Iterations 0
DICPBiCGStab:  Solving for theta, Initial residual = 1.23964e-05, Final residual = 1.05113e-14, No Iterations 1
DICPCG:  Solving for Exner, Initial residual = 4.25304e-06, Final residual = 3.53709e-09, No Iterations 15
DICPCG:  Solving for Exner, Initial residual = 3.52993e-09, Final residual = 9.81182e-11, No Iterations 9
diagonal:  Solving for rho, Initial residual = 0, Final residual = 0, No Iterations 0
DICPBiCGStab:  Solving for theta, Initial residual = 1.32744e-07, Final residual = 1.12838e-16, No Iterations 1
time step continuity errors : sum local = 1.48425e-10, global = 3.08375e-11, cumulative = 6.54153e-10
Maximum rho difference fraction = 1.06385e-08
Heat error = -1.38922e-14
ExecutionTime = 15.75 s  ClockTime = 16 s

Time = 32

Courant Number mean: 0.00115246 max: 0.0189763 max Ndt = 0.0143074
diagonal:  Solving for rho, Initial residual = 0, Final residual = 0, No Iterations 0
DICPBiCGStab:  Solving for theta, Initial residual = 0.000405082, Final residual = 3.94003e-13, No Iterations 1
DICPCG:  Solving for Exner, Initial residual = 1.51628e-05, Final residual = 1.33068e-08, No Iterations 15
DICPCG:  Solving for Exner, Initial residual = 1.79182e-08, Final residual = 6.98684e-11, No Iterations 14
diagonal:  Solving for rho, Initial residual = 0, Final residual = 0, No Iterations 0
DICPBiCGStab:  Solving for theta, Initial residual = 1.30648e-05, Final residual = 1.24997e-14, No Iterations 1
DICPCG:  Solving for Exner, Initial residual = 4.36395e-06, Final residual = 3.41843e-09, No Iterations 15
DICPCG:  Solving for Exner, Initial residual = 3.39532e-09, Final residual = 9.56628e-11, No Iterations 9
diagonal:  Solving for rho, Initial residual = 0, Final residual = 0, No Iterations 0
DICPBiCGStab:  Solving for theta, Initial residual = 2.08556e-07, Final residual = 1.95118e-16, No Iterations 1
time step continuity errors : sum local = 1.66797e-10, global = 2.83232e-11, cumulative = 6.82476e-10
Maximum rho difference fraction = 1.06433e-08
Heat error = -1.31058e-16
ExecutionTime = 16.79 s  ClockTime = 17 s

Time = 34

Courant Number mean: 0.00125647 max: 0.0201586 max Ndt = 0.0143146
diagonal:  Solving for rho, Initial residual = 0, Final residual = 0, No Iterations 0
DICPBiCGStab:  Solving for theta, Initial residual = 0.000431199, Final residual = 4.69355e-13, No Iterations 1
DICPCG:  Solving for Exner, Initial residual = 1.54657e-05, Final residual = 1.33008e-08, No Iterations 15
DICPCG:  Solving for Exner, Initial residual = 1.80605e-08, Final residual = 7.52468e-11, No Iterations 14
diagonal:  Solving for rho, Initial residual = 0, Final residual = 0, No Iterations 0
DICPBiCGStab:  Solving for theta, Initial residual = 1.37302e-05, Final residual = 1.4791e-14, No Iterations 1
DICPCG:  Solving for Exner, Initial residual = 4.33532e-06, Final residual = 2.71478e-09, No Iterations 15
DICPCG:  Solving for Exner, Initial residual = 2.74094e-09, Final residual = 8.3504e-11, No Iterations 9
diagonal:  Solving for rho, Initial residual = 0, Final residual = 0, No Iterations 0
DICPBiCGStab:  Solving for theta, Initial residual = 2.28673e-07, Final residual = 2.31047e-16, No Iterations 1
time step continuity errors : sum local = 1.73112e-10, global = 2.70285e-11, cumulative = 7.09504e-10
Maximum rho difference fraction = 9.08152e-09
Heat error = -1.7955e-14
ExecutionTime = 17.85 s  ClockTime = 18 s

Time = 36

Courant Number mean: 0.00135584 max: 0.0214517 max Ndt = 0.0143223
diagonal:  Solving for rho, Initial residual = 0, Final residual = 0, No Iterations 0
DICPBiCGStab:  Solving for theta, Initial residual = 0.000458745, Final residual = 5.61843e-13, No Iterations 1
DICPCG:  Solving for Exner, Initial residual = 1.51965e-05, Final residual = 1.15575e-08, No Iterations 15
DICPCG:  Solving for Exner, Initial residual = 1.73531e-08, Final residual = 7.77416e-11, No Iterations 14
diagonal:  Solving for rho, Initial residual = 0, Final residual = 0, No Iterations 0
DICPBiCGStab:  Solving for theta, Initial residual = 1.42436e-05, Final residual = 1.74508e-14, No Iterations 1
DICPCG:  Solving for Exner, Initial residual = 4.37298e-06, Final residual = 3.23798e-09, No Iterations 15
DICPCG:  Solving for Exner, Initial residual = 3.29167e-09, Final residual = 8.73434e-11, No Iterations 9
diagonal:  Solving for rho, Initial residual = 0, Final residual = 0, No Iterations 0
DICPBiCGStab:  Solving for theta, Initial residual = 1.59561e-07, Final residual = 2.01151e-16, No Iterations 1
time step continuity errors : sum local = 1.76276e-10, global = 2.66508e-11, cumulative = 7.36155e-10
Maximum rho difference fraction = 8.84243e-09
Heat error = -8.91196e-15
ExecutionTime = 18.91 s  ClockTime = 19 s

Time = 38

Courant Number mean: 0.00145101 max: 0.0228408 max Ndt = 0.0143305
diagonal:  Solving for rho, Initial residual = 0, Final residual = 0, No Iterations 0
DICPBiCGStab:  Solving for theta, Initial residual = 0.000487383, Final residual = 6.80759e-13, No Iterations 1
DICPCG:  Solving for Exner, Initial residual = 1.44814e-05, Final residual = 1.2107e-08, No Iterations 14
DICPCG:  Solving for Exner, Initial residual = 1.89197e-08, Final residual = 7.17447e-11, No Iterations 14
diagonal:  Solving for rho, Initial residual = 0, Final residual = 0, No Iterations 0
DICPBiCGStab:  Solving for theta, Initial residual = 1.44984e-05, Final residual = 2.0534e-14, No Iterations 1
DICPCG:  Solving for Exner, Initial residual = 4.54986e-06, Final residual = 3.65984e-09, No Iterations 15
DICPCG:  Solving for Exner, Initial residual = 3.68401e-09, Final residual = 9.43807e-11, No Iterations 9
diagonal:  Solving for rho, Initial residual = 0, Final residual = 0, No Iterations 0
DICPBiCGStab:  Solving for theta, Initial residual = 1.58164e-07, Final residual = 2.18152e-16, No Iterations 1
time step continuity errors : sum local = 1.83766e-10, global = 2.67288e-11, cumulative = 7.62884e-10
Maximum rho difference fraction = 9.21178e-09
Heat error = 1.5727e-15
ExecutionTime = 19.94 s  ClockTime = 20 s

Time = 40

Courant Number mean: 0.00154251 max: 0.0242591 max Ndt = 0.0143392
diagonal:  Solving for rho, Initial residual = 0, Final residual = 0, No Iterations 0
DICPBiCGStab:  Solving for theta, Initial residual = 0.000516529, Final residual = 8.27447e-13, No Iterations 1
DICPCG:  Solving for Exner, Initial residual = 1.46262e-05, Final residual = 1.313e-08, No Iterations 14
DICPCG:  Solving for Exner, Initial residual = 2.03119e-08, Final residual = 6.70123e-11, No Iterations 14
diagonal:  Solving for rho, Initial residual = 0, Final residual = 0, No Iterations 0
DICPBiCGStab:  Solving for theta, Initial residual = 1.44834e-05, Final residual = 2.37829e-14, No Iterations 1
DICPCG:  Solving for Exner, Initial residual = 4.6208e-06, Final residual = 3.75778e-09, No Iterations 15
DICPCG:  Solving for Exner, Initial residual = 3.84011e-09, Final residual = 6.45266e-11, No Iterations 10
diagonal:  Solving for rho, Initial residual = 0, Final residual = 0, No Iterations 0
DICPBiCGStab:  Solving for theta, Initial residual = 2.16882e-07, Final residual = 3.51922e-16, No Iterations 1
time step continuity errors : sum local = 1.83002e-10, global = 2.72112e-11, cumulative = 7.90095e-10
Maximum rho difference fraction = 8.69868e-09
Heat error = -2.35905e-15
ExecutionTime = 20.97 s  ClockTime = 21 s

Time = 42

Courant Number mean: 0.00163135 max: 0.0256371 max Ndt = 0.0143484
diagonal:  Solving for rho, Initial residual = 0, Final residual = 0, No Iterations 0
DICPBiCGStab:  Solving for theta, Initial residual = 0.000545576, Final residual = 9.90361e-13, No Iterations 1
DICPCG:  Solving for Exner, Initial residual = 1.49467e-05, Final residual = 9.78858e-09, No Iterations 15
DICPCG:  Solving for Exner, Initial residual = 1.70137e-08, Final residual = 9.39058e-11, No Iterations 13
diagonal:  Solving for rho, Initial residual = 0, Final residual = 0, No Iterations 0
DICPBiCGStab:  Solving for theta, Initial residual = 1.42756e-05, Final residual = 2.66352e-14, No Iterations 1
DICPCG:  Solving for Exner, Initial residual = 4.48084e-06, Final residual = 3.43323e-09, No Iterations 15
DICPCG:  Solving for Exner, Initial residual = 3.56958e-09, Final residual = 9.52832e-11, No Iterations 9
diagonal:  Solving for rho, Initial residual = 0, Final residual = 0, No Iterations 0
DICPBiCGStab:  Solving for theta, Initial residual = 2.13427e-07, Final residual = 3.87734e-16, No Iterations 1
time step continuity errors : sum local = 1.92207e-10, global = 2.76367e-11, cumulative = 8.17732e-10
Maximum rho difference fraction = 8.97557e-09
Heat error = -7.8635e-16
ExecutionTime = 21.99 s  ClockTime = 22 s

Time = 44

Courant Number mean: 0.00171916 max: 0.0269505 max Ndt = 0.0143581
diagonal:  Solving for rho, Initial residual = 0, Final residual = 0, No Iterations 0
DICPBiCGStab:  Solving for theta, Initial residual = 0.000574101, Final residual = 1.15401e-12, No Iterations 1
DICPCG:  Solving for Exner, Initial residual = 1.48306e-05, Final residual = 1.08279e-08, No Iterations 15
DICPCG:  Solving for Exner, Initial residual = 1.79253e-08, Final residual = 6.78806e-11, No Iterations 14
diagonal:  Solving for rho, Initial residual = 0, Final residual = 0, No Iterations 0
DICPBiCGStab:  Solving for theta, Initial residual = 1.39895e-05, Final residual = 2.86948e-14, No Iterations 1
DICPCG:  Solving for Exner, Initial residual = 4.29088e-06, Final residual = 2.79042e-09, No Iterations 15
DICPCG:  Solving for Exner, Initial residual = 2.92657e-09, Final residual = 7.75491e-11, No Iterations 9
diagonal:  Solving for rho, Initial residual = 0, Final residual = 0, No Iterations 0
DICPBiCGStab:  Solving for theta, Initial residual = 1.38259e-07, Final residual = 3.28943e-16, No Iterations 1
time step continuity errors : sum local = 1.95835e-10, global = 2.66102e-11, cumulative = 8.44342e-10
Maximum rho difference fraction = 1.05221e-08
Heat error = -4.19387e-15
ExecutionTime = 23.02 s  ClockTime = 23 s

Time = 46

Courant Number mean: 0.00180685 max: 0.0281964 max Ndt = 0.014368
diagonal:  Solving for rho, Initial residual = 0, Final residual = 0, No Iterations 0
DICPBiCGStab:  Solving for theta, Initial residual = 0.000601946, Final residual = 1.3119e-12, No Iterations 1
DICPCG:  Solving for Exner, Initial residual = 1.43836e-05, Final residual = 1.08512e-08, No Iterations 15
DICPCG:  Solving for Exner, Initial residual = 1.79736e-08, Final residual = 7.33277e-11, No Iterations 14
diagonal:  Solving for rho, Initial residual = 0, Final residual = 0, No Iterations 0
DICPBiCGStab:  Solving for theta, Initial residual = 1.37319e-05, Final residual = 3.02511e-14, No Iterations 1
DICPCG:  Solving for Exner, Initial residual = 4.4081e-06, Final residual = 3.18964e-09, No Iterations 15
DICPCG:  Solving for Exner, Initial residual = 3.33791e-09, Final residual = 9.02032e-11, No Iterations 9
diagonal:  Solving for rho, Initial residual = 0, Final residual = 0, No Iterations 0
DICPBiCGStab:  Solving for theta, Initial residual = 1.09874e-07, Final residual = 2.40357e-16, No Iterations 1
time step continuity errors : sum local = 1.9731e-10, global = 2.39943e-11, cumulative = 8.68336e-10
Maximum rho difference fraction = 1.03729e-08
Heat error = 2.62117e-16
ExecutionTime = 24.05 s  ClockTime = 24 s

Time = 48

Courant Number mean: 0.0018942 max: 0.0294177 max Ndt = 0.0143783
diagonal:  Solving for rho, Initial residual = 0, Final residual = 0, No Iterations 0
DICPBiCGStab:  Solving for theta, Initial residual = 0.000629193, Final residual = 1.47093e-12, No Iterations 1
DICPCG:  Solving for Exner, Initial residual = 1.42079e-05, Final residual = 1.00588e-08, No Iterations 15
DICPCG:  Solving for Exner, Initial residual = 1.73787e-08, Final residual = 6.92849e-11, No Iterations 14
diagonal:  Solving for rho, Initial residual = 0, Final residual = 0, No Iterations 0
DICPBiCGStab:  Solving for theta, Initial residual = 1.35816e-05, Final residual = 3.20033e-14, No Iterations 1
DICPCG:  Solving for Exner, Initial residual = 4.44689e-06, Final residual = 3.18941e-09, No Iterations 15
DICPCG:  Solving for Exner, Initial residual = 3.33114e-09, Final residual = 9.20975e-11, No Iterations 9
diagonal:  Solving for rho, Initial residual = 0, Final residual = 0, No Iterations 0
DICPBiCGStab:  Solving for theta, Initial residual = 1.41875e-07, Final residual = 3.51262e-16, No Iterations 1
time step continuity errors : sum local = 2.00167e-10, global = 2.05136e-11, cumulative = 8.8885e-10
Maximum rho difference fraction = 1.05481e-08
Heat error = 5.24233e-15
ExecutionTime = 25.08 s  ClockTime = 25 s

Time = 50

Courant Number mean: 0.00198428 max: 0.0306636 max Ndt = 0.0143888
diagonal:  Solving for rho, Initial residual = 0, Final residual = 0, No Iterations 0
DICPBiCGStab:  Solving for theta, Initial residual = 0.000656096, Final residual = 1.64772e-12, No Iterations 1
DICPCG:  Solving for Exner, Initial residual = 1.42851e-05, Final residual = 1.22948e-08, No Iterations 15
DICPCG:  Solving for Exner, Initial residual = 2.0127e-08, Final residual = 7.95461e-11, No Iterations 14
diagonal:  Solving for rho, Initial residual = 0, Final residual = 0, No Iterations 0
DICPBiCGStab:  Solving for theta, Initial residual = 1.35652e-05, Final residual = 3.44713e-14, No Iterations 1
DICPCG:  Solving for Exner, Initial residual = 4.36826e-06, Final residual = 3.10158e-09, No Iterations 15
DICPCG:  Solving for Exner, Initial residual = 3.20134e-09, Final residual = 8.24392e-11, No Iterations 9
diagonal:  Solving for rho, Initial residual = 0, Final residual = 0, No Iterations 0
DICPBiCGStab:  Solving for theta, Initial residual = 1.12712e-07, Final residual = 3.22118e-16, No Iterations 1
time step continuity errors : sum local = 2.07772e-10, global = 1.63199e-11, cumulative = 9.0517e-10
Maximum rho difference fraction = 1.06488e-08
Heat error = -7.8635e-15
ExecutionTime = 26.13 s  ClockTime = 26 s

Time = 52

Courant Number mean: 0.00207787 max: 0.0319523 max Ndt = 0.0143997
diagonal:  Solving for rho, Initial residual = 0, Final residual = 0, No Iterations 0
DICPBiCGStab:  Solving for theta, Initial residual = 0.000682966, Final residual = 1.8585e-12, No Iterations 1
DICPCG:  Solving for Exner, Initial residual = 1.41687e-05, Final residual = 1.284e-08, No Iterations 15
DICPCG:  Solving for Exner, Initial residual = 2.11359e-08, Final residual = 8.30887e-11, No Iterations 14
diagonal:  Solving for rho, Initial residual = 0, Final residual = 0, No Iterations 0
DICPBiCGStab:  Solving for theta, Initial residual = 1.36416e-05, Final residual = 3.77998e-14, No Iterations 1
DICPCG:  Solving for Exner, Initial residual = 4.23401e-06, Final residual = 4.19372e-09, No Iterations 14
DICPCG:  Solving for Exner, Initial residual = 4.26896e-09, Final residual = 9.99721e-11, No Iterations 9
diagonal:  Solving for rho, Initial residual = 0, Final residual = 0, No Iterations 0
DICPBiCGStab:  Solving for theta, Initial residual = 6.38516e-08, Final residual = 2.02074e-16, No Iterations 1
time step continuity errors : sum local = 2.20854e-10, global = 1.06364e-11, cumulative = 9.15806e-10
Maximum rho difference fraction = 1.10825e-08
Heat error = -2.62117e-15
ExecutionTime = 27.21 s  ClockTime = 27 s

Time = 54

Courant Number mean: 0.00217079 max: 0.0332653 max Ndt = 0.0144109
diagonal:  Solving for rho, Initial residual = 0, Final residual = 0, No Iterations 0
DICPBiCGStab:  Solving for theta, Initial residual = 0.00071002, Final residual = 2.10624e-12, No Iterations 1
DICPCG:  Solving for Exner, Initial residual = 1.38424e-05, Final residual = 1.12408e-08, No Iterations 15
DICPCG:  Solving for Exner, Initial residual = 1.99373e-08, Final residual = 7.5456e-11, No Iterations 14
diagonal:  Solving for rho, Initial residual = 0, Final residual = 0, No Iterations 0
DICPBiCGStab:  Solving for theta, Initial residual = 1.37188e-05, Final residual = 4.16636e-14, No Iterations 1
DICPCG:  Solving for Exner, Initial residual = 4.27565e-06, Final residual = 2.91002e-09, No Iterations 15
DICPCG:  Solving for Exner, Initial residual = 2.96671e-09, Final residual = 6.61631e-11, No Iterations 9
diagonal:  Solving for rho, Initial residual = 0, Final residual = 0, No Iterations 0
DICPBiCGStab:  Solving for theta, Initial residual = 7.72252e-08, Final residual = 2.53714e-16, No Iterations 1
time step continuity errors : sum local = 2.19862e-10, global = 7.61532e-12, cumulative = 9.23422e-10
Maximum rho difference fraction = 1.10409e-08
Heat error = -3.93175e-15
ExecutionTime = 28.23 s  ClockTime = 28 s

Time = 56

Courant Number mean: 0.0022614 max: 0.0345701 max Ndt = 0.0144226
diagonal:  Solving for rho, Initial residual = 0, Final residual = 0, No Iterations 0
DICPBiCGStab:  Solving for theta, Initial residual = 0.000737246, Final residual = 2.37829e-12, No Iterations 1
DICPCG:  Solving for Exner, Initial residual = 1.38071e-05, Final residual = 1.15483e-08, No Iterations 15
DICPCG:  Solving for Exner, Initial residual = 2.07505e-08, Final residual = 7.93742e-11, No Iterations 14
diagonal:  Solving for rho, Initial residual = 0, Final residual = 0, No Iterations 0
DICPBiCGStab:  Solving for theta, Initial residual = 1.37105e-05, Final residual = 4.5401e-14, No Iterations 1
DICPCG:  Solving for Exner, Initial residual = 4.23828e-06, Final residual = 2.93381e-09, No Iterations 15
DICPCG:  Solving for Exner, Initial residual = 2.98731e-09, Final residual = 7.21049e-11, No Iterations 9
diagonal:  Solving for rho, Initial residual = 0, Final residual = 0, No Iterations 0
DICPBiCGStab:  Solving for theta, Initial residual = 8.51308e-08, Final residual = 3.29601e-16, No Iterations 1
time step continuity errors : sum local = 2.16871e-10, global = 4.95014e-12, cumulative = 9.28372e-10
Maximum rho difference fraction = 1.10228e-08
Heat error = -4.98021e-15
ExecutionTime = 29.25 s  ClockTime = 29 s

Time = 58

Courant Number mean: 0.00234801 max: 0.0358479 max Ndt = 0.0144345
diagonal:  Solving for rho, Initial residual = 0, Final residual = 0, No Iterations 0
DICPBiCGStab:  Solving for theta, Initial residual = 0.000764446, Final residual = 2.65803e-12, No Iterations 1
DICPCG:  Solving for Exner, Initial residual = 1.38536e-05, Final residual = 1.19062e-08, No Iterations 15
DICPCG:  Solving for Exner, Initial residual = 2.16695e-08, Final residual = 8.4304e-11, No Iterations 14
diagonal:  Solving for rho, Initial residual = 0, Final residual = 0, No Iterations 0
DICPBiCGStab:  Solving for theta, Initial residual = 1.35956e-05, Final residual = 4.85896e-14, No Iterations 1
DICPCG:  Solving for Exner, Initial residual = 4.0713e-06, Final residual = 3.73483e-09, No Iterations 14
DICPCG:  Solving for Exner, Initial residual = 3.78379e-09, Final residual = 6.90123e-11, No Iterations 10
diagonal:  Solving for rho, Initial residual = 0, Final residual = 0, No Iterations 0
DICPBiCGStab:  Solving for theta, Initial residual = 6.5067e-08, Final residual = 3.05769e-16, No Iterations 1
time step continuity errors : sum local = 2.17096e-10, global = 2.48065e-12, cumulative = 9.30852e-10
Maximum rho difference fraction = 1.11474e-08
Heat error = 5.89762e-15
ExecutionTime = 30.27 s  ClockTime = 30 s

Time = 60

Courant Number mean: 0.00242848 max: 0.0371028 max Ndt = 0.0144468
diagonal:  Solving for rho, Initial residual = 0, Final residual = 0, No Iterations 0
DICPBiCGStab:  Solving for theta, Initial residual = 0.000791426, Final residual = 2.93952e-12, No Iterations 1
DICPCG:  Solving for Exner, Initial residual = 1.35123e-05, Final residual = 1.17175e-08, No Iterations 15
DICPCG:  Solving for Exner, Initial residual = 2.17682e-08, Final residual = 8.18622e-11, No Iterations 14
diagonal:  Solving for rho, Initial residual = 0, Final residual = 0, No Iterations 0
DICPBiCGStab:  Solving for theta, Initial residual = 1.34322e-05, Final residual = 5.13768e-14, No Iterations 1
DICPCG:  Solving for Exner, Initial residual = 3.8994e-06, Final residual = 3.69272e-09, No Iterations 14
DICPCG:  Solving for Exner, Initial residual = 3.71987e-09, Final residual = 7.01922e-11, No Iterations 10
diagonal:  Solving for rho, Initial residual = 0, Final residual = 0, No Iterations 0
DICPBiCGStab:  Solving for theta, Initial residual = 4.94321e-08, Final residual = 2.12467e-16, No Iterations 1
time step continuity errors : sum local = 2.23383e-10, global = 8.0451e-14, cumulative = 9.30933e-10
Maximum rho difference fraction = 1.10917e-08
Heat error = -3.01434e-15
ExecutionTime = 31.29 s  ClockTime = 31 s

Time = 62

Courant Number mean: 0.00250032 max: 0.0383503 max Ndt = 0.0144592
diagonal:  Solving for rho, Initial residual = 0, Final residual = 0, No Iterations 0
DICPBiCGStab:  Solving for theta, Initial residual = 0.000818031, Final residual = 3.23185e-12, No Iterations 1
DICPCG:  Solving for Exner, Initial residual = 1.2923e-05, Final residual = 1.10357e-08, No Iterations 15
DICPCG:  Solving for Exner, Initial residual = 2.13041e-08, Final residual = 8.43293e-11, No Iterations 14
diagonal:  Solving for rho, Initial residual = 0, Final residual = 0, No Iterations 0
DICPBiCGStab:  Solving for theta, Initial residual = 1.33028e-05, Final residual = 5.428e-14, No Iterations 1
DICPCG:  Solving for Exner, Initial residual = 3.79976e-06, Final residual = 2.91603e-09, No Iterations 15
DICPCG:  Solving for Exner, Initial residual = 2.92261e-09, Final residual = 8.57769e-11, No Iterations 9
diagonal:  Solving for rho, Initial residual = 0, Final residual = 0, No Iterations 0
DICPBiCGStab:  Solving for theta, Initial residual = 5.15285e-08, Final residual = 2.4254e-16, No Iterations 1
time step continuity errors : sum local = 2.25367e-10, global = -1.48303e-12, cumulative = 9.2945e-10
Maximum rho difference fraction = 1.10873e-08
Heat error = -8.25667e-15
ExecutionTime = 32.31 s  ClockTime = 32 s

Time = 64

Courant Number mean: 0.00256134 max: 0.0396002 max Ndt = 0.0144719
diagonal:  Solving for rho, Initial residual = 0, Final residual = 0, No Iterations 0
DICPBiCGStab:  Solving for theta, Initial residual = 0.000844311, Final residual = 3.55101e-12, No Iterations 1
DICPCG:  Solving for Exner, Initial residual = 1.21732e-05, Final residual = 1.04107e-08, No Iterations 15
DICPCG:  Solving for Exner, Initial residual = 2.08988e-08, Final residual = 8.25296e-11, No Iterations 14
diagonal:  Solving for rho, Initial residual = 0, Final residual = 0, No Iterations 0
DICPBiCGStab:  Solving for theta, Initial residual = 1.32656e-05, Final residual = 5.7831e-14, No Iterations 1
DICPCG:  Solving for Exner, Initial residual = 3.73793e-06, Final residual = 2.99445e-09, No Iterations 15
DICPCG:  Solving for Exner, Initial residual = 2.98909e-09, Final residual = 8.0927e-11, No Iterations 9
diagonal:  Solving for rho, Initial residual = 0, Final residual = 0, No Iterations 0
DICPBiCGStab:  Solving for theta, Initial residual = 5.64668e-08, Final residual = 2.99766e-16, No Iterations 1
time step continuity errors : sum local = 2.27948e-10, global = -2.59663e-12, cumulative = 9.26853e-10
Maximum rho difference fraction = 1.10408e-08
Heat error = 4.58704e-15
ExecutionTime = 33.32 s  ClockTime = 33 s

Time = 66

Courant Number mean: 0.00261081 max: 0.0408509 max Ndt = 0.0144849
diagonal:  Solving for rho, Initial residual = 0, Final residual = 0, No Iterations 0
DICPBiCGStab:  Solving for theta, Initial residual = 0.000870501, Final residual = 3.90647e-12, No Iterations 1
DICPCG:  Solving for Exner, Initial residual = 1.12764e-05, Final residual = 7.8309e-09, No Iterations 15
DICPCG:  Solving for Exner, Initial residual = 1.87408e-08, Final residual = 7.46528e-11, No Iterations 14
diagonal:  Solving for rho, Initial residual = 0, Final residual = 0, No Iterations 0
DICPBiCGStab:  Solving for theta, Initial residual = 1.33289e-05, Final residual = 6.22118e-14, No Iterations 1
DICPCG:  Solving for Exner, Initial residual = 3.72335e-06, Final residual = 3.0676e-09, No Iterations 15
DICPCG:  Solving for Exner, Initial residual = 3.08154e-09, Final residual = 8.13671e-11, No Iterations 9
diagonal:  Solving for rho, Initial residual = 0, Final residual = 0, No Iterations 0
DICPBiCGStab:  Solving for theta, Initial residual = 4.97966e-08, Final residual = 2.47503e-16, No Iterations 1
time step continuity errors : sum local = 2.29337e-10, global = -3.32175e-12, cumulative = 9.23532e-10
Maximum rho difference fraction = 1.14951e-08
Heat error = -6.42186e-15
ExecutionTime = 34.34 s  ClockTime = 34 s

Time = 68

Courant Number mean: 0.00265195 max: 0.0420957 max Ndt = 0.014498
diagonal:  Solving for rho, Initial residual = 0, Final residual = 0, No Iterations 0
DICPBiCGStab:  Solving for theta, Initial residual = 0.000896757, Final residual = 4.29614e-12, No Iterations 1
DICPCG:  Solving for Exner, Initial residual = 1.08763e-05, Final residual = 7.3253e-09, No Iterations 15
DICPCG:  Solving for Exner, Initial residual = 1.89442e-08, Final residual = 7.10442e-11, No Iterations 14
diagonal:  Solving for rho, Initial residual = 0, Final residual = 0, No Iterations 0
DICPBiCGStab:  Solving for theta, Initial residual = 1.3466e-05, Final residual = 6.72945e-14, No Iterations 1
DICPCG:  Solving for Exner, Initial residual = 3.6895e-06, Final residual = 3.41836e-09, No Iterations 15
DICPCG:  Solving for Exner, Initial residual = 3.45632e-09, Final residual = 8.90484e-11, No Iterations 9
diagonal:  Solving for rho, Initial residual = 0, Final residual = 0, No Iterations 0
DICPBiCGStab:  Solving for theta, Initial residual = 4.61549e-08, Final residual = 2.55167e-16, No Iterations 1
time step continuity errors : sum local = 2.32422e-10, global = -3.46454e-12, cumulative = 9.20067e-10
Maximum rho difference fraction = 1.5777e-08
Heat error = 5.24233e-16
ExecutionTime = 35.36 s  ClockTime = 35 s

Time = 70

Courant Number mean: 0.00271555 max: 0.0433344 max Ndt = 0.0145114
diagonal:  Solving for rho, Initial residual = 0, Final residual = 0, No Iterations 0
DICPBiCGStab:  Solving for theta, Initial residual = 0.000923227, Final residual = 4.7122e-12, No Iterations 1
DICPCG:  Solving for Exner, Initial residual = 1.10571e-05, Final residual = 9.74094e-09, No Iterations 15
DICPCG:  Solving for Exner, Initial residual = 2.17948e-08, Final residual = 7.71626e-11, No Iterations 14
diagonal:  Solving for rho, Initial residual = 0, Final residual = 0, No Iterations 0
DICPBiCGStab:  Solving for theta, Initial residual = 1.36351e-05, Final residual = 7.27227e-14, No Iterations 1
DICPCG:  Solving for Exner, Initial residual = 3.47448e-06, Final residual = 3.1662e-09, No Iterations 15
DICPCG:  Solving for Exner, Initial residual = 3.21115e-09, Final residual = 8.45903e-11, No Iterations 9
diagonal:  Solving for rho, Initial residual = 0, Final residual = 0, No Iterations 0
DICPBiCGStab:  Solving for theta, Initial residual = 6.29521e-08, Final residual = 3.14728e-16, No Iterations 1
time step continuity errors : sum local = 2.38055e-10, global = -2.9618e-12, cumulative = 9.17105e-10
Maximum rho difference fraction = 2.27954e-08
Heat error = -7.47032e-15
ExecutionTime = 36.39 s  ClockTime = 36 s

Time = 72

Courant Number mean: 0.00278473 max: 0.0445759 max Ndt = 0.014525
diagonal:  Solving for rho, Initial residual = 0, Final residual = 0, No Iterations 0
DICPBiCGStab:  Solving for theta, Initial residual = 0.000949957, Final residual = 5.15067e-12, No Iterations 1
DICPCG:  Solving for Exner, Initial residual = 1.0825e-05, Final residual = 7.21556e-09, No Iterations 16
DICPCG:  Solving for Exner, Initial residual = 2.01005e-08, Final residual = 7.1776e-11, No Iterations 14
diagonal:  Solving for rho, Initial residual = 0, Final residual = 0, No Iterations 0
DICPBiCGStab:  Solving for theta, Initial residual = 1.38085e-05, Final residual = 7.83199e-14, No Iterations 1
DICPCG:  Solving for Exner, Initial residual = 3.20353e-06, Final residual = 2.75378e-09, No Iterations 15
DICPCG:  Solving for Exner, Initial residual = 2.78607e-09, Final residual = 7.64306e-11, No Iterations 9
diagonal:  Solving for rho, Initial residual = 0, Final residual = 0, No Iterations 0
DICPBiCGStab:  Solving for theta, Initial residual = 8.15104e-08, Final residual = 4.01406e-16, No Iterations 1
time step continuity errors : sum local = 2.42373e-10, global = -2.44253e-12, cumulative = 9.14663e-10
Maximum rho difference fraction = 2.34076e-08
Heat error = -4.84916e-15
ExecutionTime = 37.43 s  ClockTime = 37 s

Time = 74

Courant Number mean: 0.00285695 max: 0.0458325 max Ndt = 0.0145387
diagonal:  Solving for rho, Initial residual = 0, Final residual = 0, No Iterations 0
DICPBiCGStab:  Solving for theta, Initial residual = 0.000976954, Final residual = 5.61343e-12, No Iterations 1
DICPCG:  Solving for Exner, Initial residual = 1.0081e-05, Final residual = 7.06822e-09, No Iterations 16
DICPCG:  Solving for Exner, Initial residual = 2.04061e-08, Final residual = 7.59398e-11, No Iterations 14
diagonal:  Solving for rho, Initial residual = 0, Final residual = 0, No Iterations 0
DICPBiCGStab:  Solving for theta, Initial residual = 1.39559e-05, Final residual = 8.39815e-14, No Iterations 1
DICPCG:  Solving for Exner, Initial residual = 3.11687e-06, Final residual = 2.58464e-09, No Iterations 15
DICPCG:  Solving for Exner, Initial residual = 2.612e-09, Final residual = 7.42925e-11, No Iterations 9
diagonal:  Solving for rho, Initial residual = 0, Final residual = 0, No Iterations 0
DICPBiCGStab:  Solving for theta, Initial residual = 8.21453e-08, Final residual = 4.36413e-16, No Iterations 1
time step continuity errors : sum local = 2.39121e-10, global = -2.28829e-12, cumulative = 9.12374e-10
Maximum rho difference fraction = 2.17103e-08
Heat error = -5.37339e-15
ExecutionTime = 38.46 s  ClockTime = 39 s

Time = 76

Courant Number mean: 0.00292619 max: 0.0471119 max Ndt = 0.0145525
diagonal:  Solving for rho, Initial residual = 0, Final residual = 0, No Iterations 0
DICPBiCGStab:  Solving for theta, Initial residual = 0.00100426, Final residual = 6.10331e-12, No Iterations 1
DICPCG:  Solving for Exner, Initial residual = 9.43012e-06, Final residual = 8.93912e-09, No Iterations 15
DICPCG:  Solving for Exner, Initial residual = 2.23611e-08, Final residual = 9.09857e-11, No Iterations 14
diagonal:  Solving for rho, Initial residual = 0, Final residual = 0, No Iterations 0
DICPBiCGStab:  Solving for theta, Initial residual = 1.40622e-05, Final residual = 8.98136e-14, No Iterations 1
DICPCG:  Solving for Exner, Initial residual = 3.24282e-06, Final residual = 2.67594e-09, No Iterations 15
DICPCG:  Solving for Exner, Initial residual = 2.71907e-09, Final residual = 7.49627e-11, No Iterations 9
diagonal:  Solving for rho, Initial residual = 0, Final residual = 0, No Iterations 0
DICPBiCGStab:  Solving for theta, Initial residual = 5.7151e-08, Final residual = 3.71799e-16, No Iterations 1
time step continuity errors : sum local = 2.35221e-10, global = -2.77753e-12, cumulative = 9.09597e-10
Maximum rho difference fraction = 2.46356e-08
Heat error = -8.25667e-15
ExecutionTime = 39.47 s  ClockTime = 40 s

Time = 78

Courant Number mean: 0.00300368 max: 0.0484116 max Ndt = 0.0145665
diagonal:  Solving for rho, Initial residual = 0, Final residual = 0, No Iterations 0
DICPBiCGStab:  Solving for theta, Initial residual = 0.0010318, Final residual = 6.61909e-12, No Iterations 1
DICPCG:  Solving for Exner, Initial residual = 9.41037e-06, Final residual = 8.90763e-09, No Iterations 15
DICPCG:  Solving for Exner, Initial residual = 2.24424e-08, Final residual = 8.8214e-11, No Iterations 14
diagonal:  Solving for rho, Initial residual = 0, Final residual = 0, No Iterations 0
DICPBiCGStab:  Solving for theta, Initial residual = 1.41232e-05, Final residual = 9.57753e-14, No Iterations 1
DICPCG:  Solving for Exner, Initial residual = 3.20497e-06, Final residual = 2.84196e-09, No Iterations 15
DICPCG:  Solving for Exner, Initial residual = 2.90992e-09, Final residual = 7.13331e-11, No Iterations 9
diagonal:  Solving for rho, Initial residual = 0, Final residual = 0, No Iterations 0
DICPBiCGStab:  Solving for theta, Initial residual = 5.26859e-08, Final residual = 4.70566e-16, No Iterations 1
time step continuity errors : sum local = 2.33627e-10, global = -3.93435e-12, cumulative = 9.05662e-10
Maximum rho difference fraction = 3.21028e-08
Heat error = -6.02868e-15
ExecutionTime = 40.51 s  ClockTime = 41 s

Time = 80

Courant Number mean: 0.00310172 max: 0.0497212 max Ndt = 0.0145805
diagonal:  Solving for rho, Initial residual = 0, Final residual = 0, No Iterations 0
DICPBiCGStab:  Solving for theta, Initial residual = 0.00105944, Final residual = 7.15665e-12, No Iterations 1
DICPCG:  Solving for Exner, Initial residual = 9.90397e-06, Final residual = 6.71172e-09, No Iterations 16
DICPCG:  Solving for Exner, Initial residual = 2.07786e-08, Final residual = 7.71091e-11, No Iterations 14
diagonal:  Solving for rho, Initial residual = 0, Final residual = 0, No Iterations 0
DICPBiCGStab:  Solving for theta, Initial residual = 1.41353e-05, Final residual = 1.0179e-13, No Iterations 1
DICPCG:  Solving for Exner, Initial residual = 2.85491e-06, Final residual = 2.69013e-09, No Iterations 15
DICPCG:  Solving for Exner, Initial residual = 2.75105e-09, Final residual = 9.65016e-11, No Iterations 8
diagonal:  Solving for rho, Initial residual = 0, Final residual = 0, No Iterations 0
DICPBiCGStab:  Solving for theta, Initial residual = 8.63266e-08, Final residual = 7.73848e-16, No Iterations 1
time step continuity errors : sum local = 2.42399e-10, global = -6.05595e-12, cumulative = 8.99607e-10
Maximum rho difference fraction = 2.13461e-08
Heat error = 5.50445e-15
ExecutionTime = 41.54 s  ClockTime = 42 s

Time = 82

Courant Number mean: 0.00320463 max: 0.0510269 max Ndt = 0.0145946
diagonal:  Solving for rho, Initial residual = 0, Final residual = 0, No Iterations 0
DICPBiCGStab:  Solving for theta, Initial residual = 0.00108709, Final residual = 7.71475e-12, No Iterations 1
DICPCG:  Solving for Exner, Initial residual = 9.78325e-06, Final residual = 6.9157e-09, No Iterations 16
DICPCG:  Solving for Exner, Initial residual = 2.11513e-08, Final residual = 7.66787e-11, No Iterations 14
diagonal:  Solving for rho, Initial residual = 0, Final residual = 0, No Iterations 0
DICPBiCGStab:  Solving for theta, Initial residual = 1.41055e-05, Final residual = 1.07631e-13, No Iterations 1
DICPCG:  Solving for Exner, Initial residual = 2.7913e-06, Final residual = 2.35648e-09, No Iterations 15
DICPCG:  Solving for Exner, Initial residual = 2.40043e-09, Final residual = 8.04538e-11, No Iterations 8
diagonal:  Solving for rho, Initial residual = 0, Final residual = 0, No Iterations 0
DICPBiCGStab:  Solving for theta, Initial residual = 1.06671e-07, Final residual = 9.18217e-16, No Iterations 1
time step continuity errors : sum local = 2.52084e-10, global = -9.24912e-12, cumulative = 8.90357e-10
Maximum rho difference fraction = 1.41129e-08
Heat error = 5.89762e-15
ExecutionTime = 42.58 s  ClockTime = 43 s

Time = 84

Courant Number mean: 0.00329995 max: 0.0523173 max Ndt = 0.0146087
diagonal:  Solving for rho, Initial residual = 0, Final residual = 0, No Iterations 0
DICPBiCGStab:  Solving for theta, Initial residual = 0.0011146, Final residual = 8.29654e-12, No Iterations 1
DICPCG:  Solving for Exner, Initial residual = 9.05529e-06, Final residual = 6.46522e-09, No Iterations 16
DICPCG:  Solving for Exner, Initial residual = 2.07683e-08, Final residual = 7.74158e-11, No Iterations 14
diagonal:  Solving for rho, Initial residual = 0, Final residual = 0, No Iterations 0
DICPBiCGStab:  Solving for theta, Initial residual = 1.40571e-05, Final residual = 1.13246e-13, No Iterations 1
DICPCG:  Solving for Exner, Initial residual = 2.87719e-06, Final residual = 2.26653e-09, No Iterations 15
DICPCG:  Solving for Exner, Initial residual = 2.30165e-09, Final residual = 8.66863e-11, No Iterations 8
diagonal:  Solving for rho, Initial residual = 0, Final residual = 0, No Iterations 0
DICPBiCGStab:  Solving for theta, Initial residual = 9.66559e-08, Final residual = 8.16154e-16, No Iterations 1
time step continuity errors : sum local = 2.54466e-10, global = -1.35366e-11, cumulative = 8.76821e-10
Maximum rho difference fraction = 1.78965e-08
Heat error = -6.15974e-15
ExecutionTime = 43.63 s  ClockTime = 44 s

Time = 86

Courant Number mean: 0.00339502 max: 0.0535876 max Ndt = 0.0146228
diagonal:  Solving for rho, Initial residual = 0, Final residual = 0, No Iterations 0
DICPBiCGStab:  Solving for theta, Initial residual = 0.00114187, Final residual = 8.91037e-12, No Iterations 1
DICPCG:  Solving for Exner, Initial residual = 9.62812e-06, Final residual = 6.41781e-09, No Iterations 16
DICPCG:  Solving for Exner, Initial residual = 2.10288e-08, Final residual = 7.87229e-11, No Iterations 14
diagonal:  Solving for rho, Initial residual = 0, Final residual = 0, No Iterations 0
DICPBiCGStab:  Solving for theta, Initial residual = 1.40232e-05, Final residual = 1.1892e-13, No Iterations 1
DICPCG:  Solving for Exner, Initial residual = 3.04029e-06, Final residual = 2.47934e-09, No Iterations 15
DICPCG:  Solving for Exner, Initial residual = 2.52418e-09, Final residual = 6.43841e-11, No Iterations 9
diagonal:  Solving for rho, Initial residual = 0, Final residual = 0, No Iterations 0
DICPBiCGStab:  Solving for theta, Initial residual = 6.65522e-08, Final residual = 5.86343e-16, No Iterations 1
time step continuity errors : sum local = 2.60024e-10, global = -1.73323e-11, cumulative = 8.59488e-10
Maximum rho difference fraction = 1.96296e-08
Heat error = -1.04847e-15
ExecutionTime = 44.68 s  ClockTime = 45 s

Time = 88

Courant Number mean: 0.00349291 max: 0.0548411 max Ndt = 0.0146367
diagonal:  Solving for rho, Initial residual = 0, Final residual = 0, No Iterations 0
DICPBiCGStab:  Solving for theta, Initial residual = 0.0011689, Final residual = 9.56278e-12, No Iterations 1
DICPCG:  Solving for Exner, Initial residual = 1.0506e-05, Final residual = 6.9943e-09, No Iterations 16
DICPCG:  Solving for Exner, Initial residual = 2.21788e-08, Final residual = 8.27883e-11, No Iterations 14
diagonal:  Solving for rho, Initial residual = 0, Final residual = 0, No Iterations 0
DICPBiCGStab:  Solving for theta, Initial residual = 1.40243e-05, Final residual = 1.25033e-13, No Iterations 1
DICPCG:  Solving for Exner, Initial residual = 2.79131e-06, Final residual = 2.1667e-09, No Iterations 15
DICPCG:  Solving for Exner, Initial residual = 2.20319e-09, Final residual = 9.74027e-11, No Iterations 8
diagonal:  Solving for rho, Initial residual = 0, Final residual = 0, No Iterations 0
DICPBiCGStab:  Solving for theta, Initial residual = 6.78566e-08, Final residual = 5.50778e-16, No Iterations 1
time step continuity errors : sum local = 2.54124e-10, global = -2.30589e-11, cumulative = 8.3643e-10
Maximum rho difference fraction = 2.42961e-08
Heat error = -7.8635e-16
ExecutionTime = 45.71 s  ClockTime = 46 s

Time = 90

Courant Number mean: 0.00359243 max: 0.0560872 max Ndt = 0.0146555
diagonal:  Solving for rho, Initial residual = 0, Final residual = 0, No Iterations 0
DICPBiCGStab:  Solving for theta, Initial residual = 0.00119576, Final residual = 1.02538e-11, No Iterations 1
DICPCG:  Solving for Exner, Initial residual = 1.06483e-05, Final residual = 1.04399e-08, No Iterations 15
DICPCG:  Solving for Exner, Initial residual = 2.59673e-08, Final residual = 9.83843e-11, No Iterations 14
diagonal:  Solving for rho, Initial residual = 0, Final residual = 0, No Iterations 0
DICPBiCGStab:  Solving for theta, Initial residual = 1.4055e-05, Final residual = 1.31844e-13, No Iterations 1
DICPCG:  Solving for Exner, Initial residual = 2.27788e-06, Final residual = 2.08361e-09, No Iterations 15
DICPCG:  Solving for Exner, Initial residual = 2.11111e-09, Final residual = 9.03443e-11, No Iterations 8
diagonal:  Solving for rho, Initial residual = 0, Final residual = 0, No Iterations 0
DICPBiCGStab:  Solving for theta, Initial residual = 7.77055e-08, Final residual = 6.24958e-16, No Iterations 1
time step continuity errors : sum local = 2.52495e-10, global = -2.79171e-11, cumulative = 8.08512e-10
Maximum rho difference fraction = 3.12413e-08
Heat error = -1.07468e-14
ExecutionTime = 46.78 s  ClockTime = 47 s

Time = 92

Courant Number mean: 0.00367572 max: 0.057337 max Ndt = 0.0146788
diagonal:  Solving for rho, Initial residual = 0, Final residual = 0, No Iterations 0
DICPBiCGStab:  Solving for theta, Initial residual = 0.00122255, Final residual = 1.09778e-11, No Iterations 1
DICPCG:  Solving for Exner, Initial residual = 9.45509e-06, Final residual = 9.26518e-09, No Iterations 15
DICPCG:  Solving for Exner, Initial residual = 2.54937e-08, Final residual = 9.60741e-11, No Iterations 14
diagonal:  Solving for rho, Initial residual = 0, Final residual = 0, No Iterations 0
DICPBiCGStab:  Solving for theta, Initial residual = 1.40985e-05, Final residual = 1.39213e-13, No Iterations 1
DICPCG:  Solving for Exner, Initial residual = 2.32061e-06, Final residual = 2.09053e-09, No Iterations 15
DICPCG:  Solving for Exner, Initial residual = 2.10582e-09, Final residual = 9.27188e-11, No Iterations 8
diagonal:  Solving for rho, Initial residual = 0, Final residual = 0, No Iterations 0
DICPBiCGStab:  Solving for theta, Initial residual = 6.84473e-08, Final residual = 5.57492e-16, No Iterations 1
time step continuity errors : sum local = 2.56703e-10, global = -3.11014e-11, cumulative = 7.77411e-10
Maximum rho difference fraction = 3.4153e-08
Heat error = -1.52028e-14
ExecutionTime = 47.84 s  ClockTime = 48 s

Time = 94

Courant Number mean: 0.00373464 max: 0.0585977 max Ndt = 0.0147022
diagonal:  Solving for rho, Initial residual = 0, Final residual = 0, No Iterations 0
DICPBiCGStab:  Solving for theta, Initial residual = 0.00124926, Final residual = 1.17288e-11, No Iterations 1
DICPCG:  Solving for Exner, Initial residual = 8.02076e-06, Final residual = 5.45304e-09, No Iterations 16
DICPCG:  Solving for Exner, Initial residual = 2.229e-08, Final residual = 8.40082e-11, No Iterations 14
diagonal:  Solving for rho, Initial residual = 0, Final residual = 0, No Iterations 0
DICPBiCGStab:  Solving for theta, Initial residual = 1.41453e-05, Final residual = 1.47031e-13, No Iterations 1
DICPCG:  Solving for Exner, Initial residual = 2.79268e-06, Final residual = 2.42586e-09, No Iterations 15
DICPCG:  Solving for Exner, Initial residual = 2.44492e-09, Final residual = 6.59847e-11, No Iterations 9
diagonal:  Solving for rho, Initial residual = 0, Final residual = 0, No Iterations 0
DICPBiCGStab:  Solving for theta, Initial residual = 5.12064e-08, Final residual = 5.0845e-16, No Iterations 1
time step continuity errors : sum local = 2.57875e-10, global = -3.1455e-11, cumulative = 7.45956e-10
Maximum rho difference fraction = 3.0035e-08
Heat error = -8.25667e-15
ExecutionTime = 48.91 s  ClockTime = 49 s

Time = 96

Courant Number mean: 0.00378244 max: 0.0598686 max Ndt = 0.0147258
diagonal:  Solving for rho, Initial residual = 0, Final residual = 0, No Iterations 0
DICPBiCGStab:  Solving for theta, Initial residual = 0.00127594, Final residual = 1.25053e-11, No Iterations 1
DICPCG:  Solving for Exner, Initial residual = 8.30418e-06, Final residual = 6.93318e-09, No Iterations 15
DICPCG:  Solving for Exner, Initial residual = 2.42048e-08, Final residual = 9.39128e-11, No Iterations 14
diagonal:  Solving for rho, Initial residual = 0, Final residual = 0, No Iterations 0
DICPBiCGStab:  Solving for theta, Initial residual = 1.42017e-05, Final residual = 1.55325e-13, No Iterations 1
DICPCG:  Solving for Exner, Initial residual = 2.96858e-06, Final residual = 2.55922e-09, No Iterations 15
DICPCG:  Solving for Exner, Initial residual = 2.60065e-09, Final residual = 6.87634e-11, No Iterations 9
diagonal:  Solving for rho, Initial residual = 0, Final residual = 0, No Iterations 0
DICPBiCGStab:  Solving for theta, Initial residual = 5.70163e-08, Final residual = 6.93884e-16, No Iterations 1
time step continuity errors : sum local = 2.61235e-10, global = -3.02974e-11, cumulative = 7.15659e-10
Maximum rho difference fraction = 2.56507e-08
Heat error = -4.84916e-15
ExecutionTime = 49.98 s  ClockTime = 50 s

Time = 98

Courant Number mean: 0.00381917 max: 0.0611429 max Ndt = 0.0147496
diagonal:  Solving for rho, Initial residual = 0, Final residual = 0, No Iterations 0
DICPBiCGStab:  Solving for theta, Initial residual = 0.00130261, Final residual = 1.331e-11, No Iterations 1
DICPCG:  Solving for Exner, Initial residual = 9.33606e-06, Final residual = 7.05162e-09, No Iterations 15
DICPCG:  Solving for Exner, Initial residual = 2.45343e-08, Final residual = 9.07178e-11, No Iterations 14
diagonal:  Solving for rho, Initial residual = 0, Final residual = 0, No Iterations 0
DICPBiCGStab:  Solving for theta, Initial residual = 1.42653e-05, Final residual = 1.63998e-13, No Iterations 1
DICPCG:  Solving for Exner, Initial residual = 2.63596e-06, Final residual = 2.36072e-09, No Iterations 15
DICPCG:  Solving for Exner, Initial residual = 2.3902e-09, Final residual = 9.67469e-11, No Iterations 8
diagonal:  Solving for rho, Initial residual = 0, Final residual = 0, No Iterations 0
DICPBiCGStab:  Solving for theta, Initial residual = 7.72398e-08, Final residual = 9.54838e-16, No Iterations 1
time step continuity errors : sum local = 2.59023e-10, global = -2.68613e-11, cumulative = 6.88797e-10
Maximum rho difference fraction = 2.948e-08
Heat error = -1.10089e-14
ExecutionTime = 51.02 s  ClockTime = 51 s

Time = 100

Courant Number mean: 0.00385424 max: 0.0624117 max Ndt = 0.0147734
diagonal:  Solving for rho, Initial residual = 0, Final residual = 0, No Iterations 0
DICPBiCGStab:  Solving for theta, Initial residual = 0.0013294, Final residual = 1.41562e-11, No Iterations 1
DICPCG:  Solving for Exner, Initial residual = 9.37768e-06, Final residual = 7.99581e-09, No Iterations 15
DICPCG:  Solving for Exner, Initial residual = 2.55609e-08, Final residual = 9.05976e-11, No Iterations 14
diagonal:  Solving for rho, Initial residual = 0, Final residual = 0, No Iterations 0
DICPBiCGStab:  Solving for theta, Initial residual = 1.43233e-05, Final residual = 1.72806e-13, No Iterations 1
DICPCG:  Solving for Exner, Initial residual = 2.24113e-06, Final residual = 1.58666e-09, No Iterations 16
DICPCG:  Solving for Exner, Initial residual = 1.62792e-09, Final residual = 6.59947e-11, No Iterations 8
diagonal:  Solving for rho, Initial residual = 0, Final residual = 0, No Iterations 0
DICPBiCGStab:  Solving for theta, Initial residual = 7.83503e-08, Final residual = 9.86262e-16, No Iterations 1
time step continuity errors : sum local = 2.60515e-10, global = -2.60748e-11, cumulative = 6.62722e-10
Maximum rho difference fraction = 3.02671e-08
Heat error = -5.63551e-15
ExecutionTime = 52.11 s  ClockTime = 52 s

Time = 102

Courant Number mean: 0.00389619 max: 0.0636701 max Ndt = 0.0147973
diagonal:  Solving for rho, Initial residual = 0, Final residual = 0, No Iterations 0
DICPBiCGStab:  Solving for theta, Initial residual = 0.00135635, Final residual = 1.50476e-11, No Iterations 1
DICPCG:  Solving for Exner, Initial residual = 8.71612e-06, Final residual = 7.8872e-09, No Iterations 15
DICPCG:  Solving for Exner, Initial residual = 2.56171e-08, Final residual = 8.90529e-11, No Iterations 14
diagonal:  Solving for rho, Initial residual = 0, Final residual = 0, No Iterations 0
DICPBiCGStab:  Solving for theta, Initial residual = 1.43614e-05, Final residual = 1.81619e-13, No Iterations 1
DICPCG:  Solving for Exner, Initial residual = 2.67053e-06, Final residual = 2.37624e-09, No Iterations 15
DICPCG:  Solving for Exner, Initial residual = 2.42545e-09, Final residual = 9.89802e-11, No Iterations 8
diagonal:  Solving for rho, Initial residual = 0, Final residual = 0, No Iterations 0
DICPBiCGStab:  Solving for theta, Initial residual = 6.69229e-08, Final residual = 8.55337e-16, No Iterations 1
time step continuity errors : sum local = 2.57565e-10, global = -2.21874e-11, cumulative = 6.40535e-10
Maximum rho difference fraction = 3.23331e-08
Heat error = -5.63551e-15
ExecutionTime = 53.13 s  ClockTime = 53 s

Time = 104

Courant Number mean: 0.00395688 max: 0.0649189 max Ndt = 0.0148212
diagonal:  Solving for rho, Initial residual = 0, Final residual = 0, No Iterations 0
DICPBiCGStab:  Solving for theta, Initial residual = 0.00138331, Final residual = 1.59843e-11, No Iterations 1
DICPCG:  Solving for Exner, Initial residual = 8.84301e-06, Final residual = 8.7413e-09, No Iterations 15
DICPCG:  Solving for Exner, Initial residual = 2.67506e-08, Final residual = 9.67636e-11, No Iterations 14
diagonal:  Solving for rho, Initial residual = 0, Final residual = 0, No Iterations 0
DICPBiCGStab:  Solving for theta, Initial residual = 1.43739e-05, Final residual = 1.90507e-13, No Iterations 1
DICPCG:  Solving for Exner, Initial residual = 2.95714e-06, Final residual = 2.29374e-09, No Iterations 15
DICPCG:  Solving for Exner, Initial residual = 2.33498e-09, Final residual = 9.73522e-11, No Iterations 8
diagonal:  Solving for rho, Initial residual = 0, Final residual = 0, No Iterations 0
DICPBiCGStab:  Solving for theta, Initial residual = 6.70313e-08, Final residual = 7.84618e-16, No Iterations 1
time step continuity errors : sum local = 2.64994e-10, global = -1.86677e-11, cumulative = 6.21867e-10
Maximum rho difference fraction = 4.18196e-08
Heat error = -1.36301e-14
ExecutionTime = 54.15 s  ClockTime = 54 s

Time = 106

Courant Number mean: 0.00404216 max: 0.0661626 max Ndt = 0.014845
diagonal:  Solving for rho, Initial residual = 0, Final residual = 0, No Iterations 0
DICPBiCGStab:  Solving for theta, Initial residual = 0.00141014, Final residual = 1.69616e-11, No Iterations 1
DICPCG:  Solving for Exner, Initial residual = 1.00694e-05, Final residual = 9.88354e-09, No Iterations 15
DICPCG:  Solving for Exner, Initial residual = 2.80243e-08, Final residual = 6.14955e-11, No Iterations 15
diagonal:  Solving for rho, Initial residual = 0, Final residual = 0, No Iterations 0
DICPBiCGStab:  Solving for theta, Initial residual = 1.43641e-05, Final residual = 1.99502e-13, No Iterations 1
DICPCG:  Solving for Exner, Initial residual = 2.6874e-06, Final residual = 2.31862e-09, No Iterations 15
DICPCG:  Solving for Exner, Initial residual = 2.34901e-09, Final residual = 9.78402e-11, No Iterations 8
diagonal:  Solving for rho, Initial residual = 0, Final residual = 0, No Iterations 0
DICPBiCGStab:  Solving for theta, Initial residual = 6.4329e-08, Final residual = 7.61993e-16, No Iterations 1
time step continuity errors : sum local = 2.79911e-10, global = -1.93277e-11, cumulative = 6.0254e-10
Maximum rho difference fraction = 4.82093e-08
Heat error = -1.04847e-15
ExecutionTime = 55.18 s  ClockTime = 55 s

Time = 108

Courant Number mean: 0.00414396 max: 0.0674055 max Ndt = 0.0148688
diagonal:  Solving for rho, Initial residual = 0, Final residual = 0, No Iterations 0
DICPBiCGStab:  Solving for theta, Initial residual = 0.00143677, Final residual = 1.79798e-11, No Iterations 1
DICPCG:  Solving for Exner, Initial residual = 1.07068e-05, Final residual = 1.0495e-08, No Iterations 15
DICPCG:  Solving for Exner, Initial residual = 2.89242e-08, Final residual = 6.73162e-11, No Iterations 15
diagonal:  Solving for rho, Initial residual = 0, Final residual = 0, No Iterations 0
DICPBiCGStab:  Solving for theta, Initial residual = 1.43348e-05, Final residual = 2.08704e-13, No Iterations 1
DICPCG:  Solving for Exner, Initial residual = 2.35876e-06, Final residual = 2.06936e-09, No Iterations 15
DICPCG:  Solving for Exner, Initial residual = 2.11662e-09, Final residual = 9.33603e-11, No Iterations 8
diagonal:  Solving for rho, Initial residual = 0, Final residual = 0, No Iterations 0
DICPBiCGStab:  Solving for theta, Initial residual = 5.67848e-08, Final residual = 7.43932e-16, No Iterations 1
time step continuity errors : sum local = 2.93027e-10, global = -2.29918e-11, cumulative = 5.79548e-10
Maximum rho difference fraction = 4.97572e-08
Heat error = -1.66444e-14
ExecutionTime = 56.21 s  ClockTime = 56 s

Time = 110

Courant Number mean: 0.00424152 max: 0.0686473 max Ndt = 0.0148925
diagonal:  Solving for rho, Initial residual = 0, Final residual = 0, No Iterations 0
DICPBiCGStab:  Solving for theta, Initial residual = 0.00146316, Final residual = 1.90342e-11, No Iterations 1
DICPCG:  Solving for Exner, Initial residual = 1.01474e-05, Final residual = 6.80399e-09, No Iterations 16
DICPCG:  Solving for Exner, Initial residual = 2.61878e-08, Final residual = 6.64819e-11, No Iterations 15
diagonal:  Solving for rho, Initial residual = 0, Final residual = 0, No Iterations 0
DICPBiCGStab:  Solving for theta, Initial residual = 1.42965e-05, Final residual = 2.18186e-13, No Iterations 1
DICPCG:  Solving for Exner, Initial residual = 2.33268e-06, Final residual = 2.20384e-09, No Iterations 15
DICPCG:  Solving for Exner, Initial residual = 2.23734e-09, Final residual = 6.52859e-11, No Iterations 9
diagonal:  Solving for rho, Initial residual = 0, Final residual = 0, No Iterations 0
DICPBiCGStab:  Solving for theta, Initial residual = 5.28735e-08, Final residual = 7.70388e-16, No Iterations 1
time step continuity errors : sum local = 2.93302e-10, global = -2.54421e-11, cumulative = 5.54106e-10
Maximum rho difference fraction = 4.83364e-08
Heat error = -4.19387e-15
ExecutionTime = 57.24 s  ClockTime = 57 s

Time = 112

Courant Number mean: 0.00432114 max: 0.0698835 max Ndt = 0.0149161
diagonal:  Solving for rho, Initial residual = 0, Final residual = 0, No Iterations 0
DICPBiCGStab:  Solving for theta, Initial residual = 0.00148941, Final residual = 2.01267e-11, No Iterations 1
DICPCG:  Solving for Exner, Initial residual = 1.00193e-05, Final residual = 9.28791e-09, No Iterations 15
DICPCG:  Solving for Exner, Initial residual = 2.90594e-08, Final residual = 7.48409e-11, No Iterations 15
diagonal:  Solving for rho, Initial residual = 0, Final residual = 0, No Iterations 0
DICPBiCGStab:  Solving for theta, Initial residual = 1.42568e-05, Final residual = 2.27977e-13, No Iterations 1
DICPCG:  Solving for Exner, Initial residual = 2.74739e-06, Final residual = 2.68467e-09, No Iterations 15
DICPCG:  Solving for Exner, Initial residual = 2.68303e-09, Final residual = 7.90152e-11, No Iterations 9
diagonal:  Solving for rho, Initial residual = 0, Final residual = 0, No Iterations 0
DICPBiCGStab:  Solving for theta, Initial residual = 5.88029e-08, Final residual = 8.90602e-16, No Iterations 1
time step continuity errors : sum local = 2.97732e-10, global = -2.80483e-11, cumulative = 5.26057e-10
Maximum rho difference fraction = 4.82792e-08
Heat error = 4.98021e-15
ExecutionTime = 58.26 s  ClockTime = 58 s

Time = 114

Courant Number mean: 0.00437901 max: 0.0711081 max Ndt = 0.0149394
diagonal:  Solving for rho, Initial residual = 0, Final residual = 0, No Iterations 0
DICPBiCGStab:  Solving for theta, Initial residual = 0.00151534, Final residual = 2.12551e-11, No Iterations 1
DICPCG:  Solving for Exner, Initial residual = 9.8787e-06, Final residual = 7.30111e-09, No Iterations 16
DICPCG:  Solving for Exner, Initial residual = 2.77955e-08, Final residual = 7.57965e-11, No Iterations 15
diagonal:  Solving for rho, Initial residual = 0, Final residual = 0, No Iterations 0
DICPBiCGStab:  Solving for theta, Initial residual = 1.42217e-05, Final residual = 2.38165e-13, No Iterations 1
DICPCG:  Solving for Exner, Initial residual = 2.83135e-06, Final residual = 1.92109e-09, No Iterations 16
DICPCG:  Solving for Exner, Initial residual = 1.95475e-09, Final residual = 8.84121e-11, No Iterations 8
diagonal:  Solving for rho, Initial residual = 0, Final residual = 0, No Iterations 0
DICPBiCGStab:  Solving for theta, Initial residual = 6.39186e-08, Final residual = 9.66996e-16, No Iterations 1
time step continuity errors : sum local = 3.07726e-10, global = -3.25193e-11, cumulative = 4.93538e-10
Maximum rho difference fraction = 5.44992e-08
Heat error = 4.7181e-15
ExecutionTime = 59.29 s  ClockTime = 59 s

Time = 116

Courant Number mean: 0.00444165 max: 0.0723169 max Ndt = 0.0149625
diagonal:  Solving for rho, Initial residual = 0, Final residual = 0, No Iterations 0
DICPBiCGStab:  Solving for theta, Initial residual = 0.00154102, Final residual = 2.24129e-11, No Iterations 1
DICPCG:  Solving for Exner, Initial residual = 1.04571e-05, Final residual = 7.66752e-09, No Iterations 16
DICPCG:  Solving for Exner, Initial residual = 2.85732e-08, Final residual = 7.49643e-11, No Iterations 15
diagonal:  Solving for rho, Initial residual = 0, Final residual = 0, No Iterations 0
DICPBiCGStab:  Solving for theta, Initial residual = 1.42021e-05, Final residual = 2.49036e-13, No Iterations 1
DICPCG:  Solving for Exner, Initial residual = 2.76696e-06, Final residual = 1.89883e-09, No Iterations 16
DICPCG:  Solving for Exner, Initial residual = 1.95156e-09, Final residual = 9.392e-11, No Iterations 8
diagonal:  Solving for rho, Initial residual = 0, Final residual = 0, No Iterations 0
DICPBiCGStab:  Solving for theta, Initial residual = 6.87071e-08, Final residual = 1.05983e-15, No Iterations 1
time step continuity errors : sum local = 3.2133e-10, global = -3.7037e-11, cumulative = 4.56501e-10
Maximum rho difference fraction = 5.34734e-08
Heat error = -2.49011e-15
ExecutionTime = 60.33 s  ClockTime = 60 s

Time = 118

Courant Number mean: 0.00450964 max: 0.0735105 max Ndt = 0.0149854
diagonal:  Solving for rho, Initial residual = 0, Final residual = 0, No Iterations 0
DICPBiCGStab:  Solving for theta, Initial residual = 0.00156641, Final residual = 2.35936e-11, No Iterations 1
DICPCG:  Solving for Exner, Initial residual = 1.0713e-05, Final residual = 8.03737e-09, No Iterations 16
DICPCG:  Solving for Exner, Initial residual = 2.92095e-08, Final residual = 7.68581e-11, No Iterations 15
diagonal:  Solving for rho, Initial residual = 0, Final residual = 0, No Iterations 0
DICPBiCGStab:  Solving for theta, Initial residual = 1.42306e-05, Final residual = 2.60847e-13, No Iterations 1
DICPCG:  Solving for Exner, Initial residual = 2.82462e-06, Final residual = 2.13818e-09, No Iterations 16
DICPCG:  Solving for Exner, Initial residual = 2.19709e-09, Final residual = 6.80947e-11, No Iterations 9
[...]
time step continuity errors : sum local = 1.19476e-09, global = 1.94868e-10, cumulative = 1.6488e-08
Maximum rho difference fraction = 5.4458e-08
Heat error = 3.22797e-13
ExecutionTime = 1087.41 s  ClockTime = 1088 s

Time = 972

Courant Number mean: 0.0447993 max: 0.328449 max Ndt = 0.0259094
diagonal:  Solving for rho, Initial residual = 0, Final residual = 0, No Iterations 0
DICPBiCGStab:  Solving for theta, Initial residual = 0.00741139, Final residual = 7.8897e-09, No Iterations 1
DICPCG:  Solving for Exner, Initial residual = 9.89765e-06, Final residual = 8.96991e-09, No Iterations 16
DICPCG:  Solving for Exner, Initial residual = 4.13619e-07, Final residual = 3.87074e-10, No Iterations 15
diagonal:  Solving for rho, Initial residual = 0, Final residual = 0, No Iterations 0
DICPBiCGStab:  Solving for theta, Initial residual = 0.000210864, Final residual = 1.74566e-10, No Iterations 1
DICPCG:  Solving for Exner, Initial residual = 1.21299e-06, Final residual = 1.16617e-09, No Iterations 16
DICPCG:  Solving for Exner, Initial residual = 8.98602e-09, Final residual = 9.51414e-11, No Iterations 9
diagonal:  Solving for rho, Initial residual = 0, Final residual = 0, No Iterations 0
DICPBiCGStab:  Solving for theta, Initial residual = 9.04838e-06, Final residual = 8.14953e-12, No Iterations 1
time step continuity errors : sum local = 1.19097e-09, global = 1.80583e-10, cumulative = 1.66686e-08
Maximum rho difference fraction = 5.71358e-08
Heat error = 3.33937e-13
ExecutionTime = 1089.83 s  ClockTime = 1090 s

Time = 974

Courant Number mean: 0.0448901 max: 0.327919 max Ndt = 0.025894
diagonal:  Solving for rho, Initial residual = 0, Final residual = 0, No Iterations 0
DICPBiCGStab:  Solving for theta, Initial residual = 0.00739933, Final residual = 7.89257e-09, No Iterations 1
DICPCG:  Solving for Exner, Initial residual = 9.71701e-06, Final residual = 8.68303e-09, No Iterations 16
DICPCG:  Solving for Exner, Initial residual = 4.128e-07, Final residual = 3.83685e-10, No Iterations 15
diagonal:  Solving for rho, Initial residual = 0, Final residual = 0, No Iterations 0
DICPBiCGStab:  Solving for theta, Initial residual = 0.000210455, Final residual = 1.73986e-10, No Iterations 1
DICPCG:  Solving for Exner, Initial residual = 1.07148e-06, Final residual = 7.93478e-10, No Iterations 17
DICPCG:  Solving for Exner, Initial residual = 8.69694e-09, Final residual = 7.30622e-11, No Iterations 9
diagonal:  Solving for rho, Initial residual = 0, Final residual = 0, No Iterations 0
DICPBiCGStab:  Solving for theta, Initial residual = 9.02922e-06, Final residual = 8.14078e-12, No Iterations 1
time step continuity errors : sum local = 1.1888e-09, global = 1.73908e-10, cumulative = 1.68425e-08
Maximum rho difference fraction = 5.60899e-08
Heat error = 3.37737e-13
ExecutionTime = 1091.91 s  ClockTime = 1092 s

Time = 976

Courant Number mean: 0.0449783 max: 0.327282 max Ndt = 0.0258984
diagonal:  Solving for rho, Initial residual = 0, Final residual = 0, No Iterations 0
DICPBiCGStab:  Solving for theta, Initial residual = 0.00739177, Final residual = 7.89811e-09, No Iterations 1
DICPCG:  Solving for Exner, Initial residual = 8.71288e-06, Final residual = 7.95219e-09, No Iterations 16
DICPCG:  Solving for Exner, Initial residual = 4.11159e-07, Final residual = 3.75864e-10, No Iterations 15
diagonal:  Solving for rho, Initial residual = 0, Final residual = 0, No Iterations 0
DICPBiCGStab:  Solving for theta, Initial residual = 0.000209548, Final residual = 1.73001e-10, No Iterations 1
DICPCG:  Solving for Exner, Initial residual = 1.36744e-06, Final residual = 9.4897e-10, No Iterations 17
DICPCG:  Solving for Exner, Initial residual = 8.80411e-09, Final residual = 7.84622e-11, No Iterations 9
diagonal:  Solving for rho, Initial residual = 0, Final residual = 0, No Iterations 0
DICPBiCGStab:  Solving for theta, Initial residual = 8.9988e-06, Final residual = 8.13286e-12, No Iterations 1
time step continuity errors : sum local = 1.18795e-09, global = 1.70474e-10, cumulative = 1.70129e-08
Maximum rho difference fraction = 5.57679e-08
Heat error = 3.33543e-13
ExecutionTime = 1093.95 s  ClockTime = 1094 s

Time = 978

Courant Number mean: 0.0450669 max: 0.326547 max Ndt = 0.0258764
diagonal:  Solving for rho, Initial residual = 0, Final residual = 0, No Iterations 0
DICPBiCGStab:  Solving for theta, Initial residual = 0.00739349, Final residual = 7.90589e-09, No Iterations 1
DICPCG:  Solving for Exner, Initial residual = 7.20317e-06, Final residual = 6.79897e-09, No Iterations 16
DICPCG:  Solving for Exner, Initial residual = 4.09691e-07, Final residual = 3.67111e-10, No Iterations 15
diagonal:  Solving for rho, Initial residual = 0, Final residual = 0, No Iterations 0
DICPBiCGStab:  Solving for theta, Initial residual = 0.000209078, Final residual = 1.72207e-10, No Iterations 1
DICPCG:  Solving for Exner, Initial residual = 1.74576e-06, Final residual = 1.14741e-09, No Iterations 17
DICPCG:  Solving for Exner, Initial residual = 8.95807e-09, Final residual = 8.57549e-11, No Iterations 9
diagonal:  Solving for rho, Initial residual = 0, Final residual = 0, No Iterations 0
DICPBiCGStab:  Solving for theta, Initial residual = 9.01203e-06, Final residual = 8.1147e-12, No Iterations 1
time step continuity errors : sum local = 1.188e-09, global = 1.6939e-10, cumulative = 1.71823e-08
Maximum rho difference fraction = 5.62623e-08
Heat error = 3.38917e-13
ExecutionTime = 1095.94 s  ClockTime = 1096 s

Time = 980

Courant Number mean: 0.0451577 max: 0.325723 max Ndt = 0.0258414
diagonal:  Solving for rho, Initial residual = 0, Final residual = 0, No Iterations 0
DICPBiCGStab:  Solving for theta, Initial residual = 0.0073968, Final residual = 7.92207e-09, No Iterations 1
DICPCG:  Solving for Exner, Initial residual = 5.59472e-06, Final residual = 3.65579e-09, No Iterations 17
DICPCG:  Solving for Exner, Initial residual = 4.07485e-07, Final residual = 3.57558e-10, No Iterations 15
diagonal:  Solving for rho, Initial residual = 0, Final residual = 0, No Iterations 0
DICPBiCGStab:  Solving for theta, Initial residual = 0.000209169, Final residual = 1.71953e-10, No Iterations 1
DICPCG:  Solving for Exner, Initial residual = 2.00583e-06, Final residual = 1.99656e-09, No Iterations 16
DICPCG:  Solving for Exner, Initial residual = 9.65358e-09, Final residual = 7.47221e-11, No Iterations 10
diagonal:  Solving for rho, Initial residual = 0, Final residual = 0, No Iterations 0
DICPBiCGStab:  Solving for theta, Initial residual = 9.01795e-06, Final residual = 8.12246e-12, No Iterations 1
time step continuity errors : sum local = 1.18429e-09, global = 1.70793e-10, cumulative = 1.73531e-08
Maximum rho difference fraction = 5.63875e-08
Heat error = 3.30791e-13
ExecutionTime = 1097.99 s  ClockTime = 1098 s

Time = 982

Courant Number mean: 0.0452512 max: 0.324832 max Ndt = 0.0258505
diagonal:  Solving for rho, Initial residual = 0, Final residual = 0, No Iterations 0
DICPBiCGStab:  Solving for theta, Initial residual = 0.00740137, Final residual = 7.94011e-09, No Iterations 1
DICPCG:  Solving for Exner, Initial residual = 5.56897e-06, Final residual = 5.24568e-09, No Iterations 16
DICPCG:  Solving for Exner, Initial residual = 4.08515e-07, Final residual = 3.75779e-10, No Iterations 15
diagonal:  Solving for rho, Initial residual = 0, Final residual = 0, No Iterations 0
DICPBiCGStab:  Solving for theta, Initial residual = 0.000209388, Final residual = 1.72284e-10, No Iterations 1
DICPCG:  Solving for Exner, Initial residual = 2.13135e-06, Final residual = 2.09681e-09, No Iterations 16
DICPCG:  Solving for Exner, Initial residual = 9.74778e-09, Final residual = 7.57055e-11, No Iterations 10
diagonal:  Solving for rho, Initial residual = 0, Final residual = 0, No Iterations 0
DICPBiCGStab:  Solving for theta, Initial residual = 9.02597e-06, Final residual = 8.13873e-12, No Iterations 1
time step continuity errors : sum local = 1.18125e-09, global = 1.71459e-10, cumulative = 1.75246e-08
Maximum rho difference fraction = 5.6261e-08
Heat error = 3.38655e-13
ExecutionTime = 1100.02 s  ClockTime = 1100 s

Time = 984

Courant Number mean: 0.0453481 max: 0.324922 max Ndt = 0.025826
diagonal:  Solving for rho, Initial residual = 0, Final residual = 0, No Iterations 0
DICPBiCGStab:  Solving for theta, Initial residual = 0.00740634, Final residual = 7.95563e-09, No Iterations 1
DICPCG:  Solving for Exner, Initial residual = 6.63235e-06, Final residual = 4.69299e-09, No Iterations 16
DICPCG:  Solving for Exner, Initial residual = 4.08078e-07, Final residual = 3.69376e-10, No Iterations 15
diagonal:  Solving for rho, Initial residual = 0, Final residual = 0, No Iterations 0
DICPBiCGStab:  Solving for theta, Initial residual = 0.000209454, Final residual = 1.72923e-10, No Iterations 1
DICPCG:  Solving for Exner, Initial residual = 2.1295e-06, Final residual = 1.41731e-09, No Iterations 17
DICPCG:  Solving for Exner, Initial residual = 9.19308e-09, Final residual = 8.72447e-11, No Iterations 9
diagonal:  Solving for rho, Initial residual = 0, Final residual = 0, No Iterations 0
DICPBiCGStab:  Solving for theta, Initial residual = 9.02007e-06, Final residual = 8.15682e-12, No Iterations 1
time step continuity errors : sum local = 1.17953e-09, global = 1.68442e-10, cumulative = 1.7693e-08
Maximum rho difference fraction = 5.53877e-08
Heat error = 3.38524e-13
ExecutionTime = 1102.01 s  ClockTime = 1102 s

Time = 986

Courant Number mean: 0.0454489 max: 0.324924 max Ndt = 0.0258068
diagonal:  Solving for rho, Initial residual = 0, Final residual = 0, No Iterations 0
DICPBiCGStab:  Solving for theta, Initial residual = 0.00740717, Final residual = 7.96578e-09, No Iterations 1
DICPCG:  Solving for Exner, Initial residual = 7.78483e-06, Final residual = 5.54049e-09, No Iterations 16
DICPCG:  Solving for Exner, Initial residual = 4.08748e-07, Final residual = 3.59073e-10, No Iterations 15
diagonal:  Solving for rho, Initial residual = 0, Final residual = 0, No Iterations 0
DICPBiCGStab:  Solving for theta, Initial residual = 0.000209525, Final residual = 1.73509e-10, No Iterations 1
DICPCG:  Solving for Exner, Initial residual = 1.96933e-06, Final residual = 1.37291e-09, No Iterations 17
DICPCG:  Solving for Exner, Initial residual = 9.14511e-09, Final residual = 8.09169e-11, No Iterations 9
diagonal:  Solving for rho, Initial residual = 0, Final residual = 0, No Iterations 0
DICPBiCGStab:  Solving for theta, Initial residual = 8.99555e-06, Final residual = 8.16486e-12, No Iterations 1
time step continuity errors : sum local = 1.17762e-09, global = 1.62665e-10, cumulative = 1.78557e-08
Maximum rho difference fraction = 5.52202e-08
Heat error = 3.38524e-13
ExecutionTime = 1103.94 s  ClockTime = 1104 s

Time = 988

Courant Number mean: 0.0455523 max: 0.324845 max Ndt = 0.0258128
diagonal:  Solving for rho, Initial residual = 0, Final residual = 0, No Iterations 0
DICPBiCGStab:  Solving for theta, Initial residual = 0.00740189, Final residual = 7.97858e-09, No Iterations 1
DICPCG:  Solving for Exner, Initial residual = 8.57045e-06, Final residual = 7.03232e-09, No Iterations 16
DICPCG:  Solving for Exner, Initial residual = 4.09931e-07, Final residual = 3.56222e-10, No Iterations 15
diagonal:  Solving for rho, Initial residual = 0, Final residual = 0, No Iterations 0
DICPBiCGStab:  Solving for theta, Initial residual = 0.000209431, Final residual = 1.73415e-10, No Iterations 1
DICPCG:  Solving for Exner, Initial residual = 1.66533e-06, Final residual = 1.27907e-09, No Iterations 17
DICPCG:  Solving for Exner, Initial residual = 9.03665e-09, Final residual = 7.90336e-11, No Iterations 9
diagonal:  Solving for rho, Initial residual = 0, Final residual = 0, No Iterations 0
DICPBiCGStab:  Solving for theta, Initial residual = 8.96765e-06, Final residual = 8.1516e-12, No Iterations 1
time step continuity errors : sum local = 1.17322e-09, global = 1.53557e-10, cumulative = 1.80093e-08
Maximum rho difference fraction = 5.59233e-08
Heat error = 3.42455e-13
ExecutionTime = 1105.93 s  ClockTime = 1106 s

Time = 990

Courant Number mean: 0.0456576 max: 0.324692 max Ndt = 0.0257559
diagonal:  Solving for rho, Initial residual = 0, Final residual = 0, No Iterations 0
DICPBiCGStab:  Solving for theta, Initial residual = 0.00739462, Final residual = 7.98811e-09, No Iterations 1
DICPCG:  Solving for Exner, Initial residual = 8.89622e-06, Final residual = 7.97881e-09, No Iterations 16
DICPCG:  Solving for Exner, Initial residual = 4.10934e-07, Final residual = 3.54378e-10, No Iterations 15
diagonal:  Solving for rho, Initial residual = 0, Final residual = 0, No Iterations 0
DICPBiCGStab:  Solving for theta, Initial residual = 0.000208821, Final residual = 1.72902e-10, No Iterations 1
DICPCG:  Solving for Exner, Initial residual = 1.46921e-06, Final residual = 1.25276e-09, No Iterations 17
DICPCG:  Solving for Exner, Initial residual = 8.96897e-09, Final residual = 8.5255e-11, No Iterations 9
diagonal:  Solving for rho, Initial residual = 0, Final residual = 0, No Iterations 0
DICPBiCGStab:  Solving for theta, Initial residual = 8.91732e-06, Final residual = 8.0945e-12, No Iterations 1
time step continuity errors : sum local = 1.16677e-09, global = 1.45176e-10, cumulative = 1.81544e-08
Maximum rho difference fraction = 5.77834e-08
Heat error = 3.37999e-13
ExecutionTime = 1107.89 s  ClockTime = 1108 s

Time = 992

Courant Number mean: 0.045764 max: 0.324473 max Ndt = 0.0257784
diagonal:  Solving for rho, Initial residual = 0, Final residual = 0, No Iterations 0
DICPBiCGStab:  Solving for theta, Initial residual = 0.00739602, Final residual = 7.99553e-09, No Iterations 1
DICPCG:  Solving for Exner, Initial residual = 8.86278e-06, Final residual = 7.9714e-09, No Iterations 16
DICPCG:  Solving for Exner, Initial residual = 4.10765e-07, Final residual = 3.53023e-10, No Iterations 15
diagonal:  Solving for rho, Initial residual = 0, Final residual = 0, No Iterations 0
DICPBiCGStab:  Solving for theta, Initial residual = 0.000208482, Final residual = 1.72683e-10, No Iterations 1
DICPCG:  Solving for Exner, Initial residual = 1.4905e-06, Final residual = 1.19543e-09, No Iterations 17
DICPCG:  Solving for Exner, Initial residual = 8.89954e-09, Final residual = 8.99511e-11, No Iterations 9
diagonal:  Solving for rho, Initial residual = 0, Final residual = 0, No Iterations 0
DICPBiCGStab:  Solving for theta, Initial residual = 8.88588e-06, Final residual = 8.05043e-12, No Iterations 1
time step continuity errors : sum local = 1.16096e-09, global = 1.3857e-10, cumulative = 1.8293e-08
Maximum rho difference fraction = 6.09847e-08
Heat error = 3.44945e-13
ExecutionTime = 1109.85 s  ClockTime = 1110 s

Time = 994

Courant Number mean: 0.0458698 max: 0.324195 max Ndt = 0.0257538
diagonal:  Solving for rho, Initial residual = 0, Final residual = 0, No Iterations 0
DICPBiCGStab:  Solving for theta, Initial residual = 0.00740593, Final residual = 8.01474e-09, No Iterations 1
DICPCG:  Solving for Exner, Initial residual = 8.45108e-06, Final residual = 7.63142e-09, No Iterations 16
DICPCG:  Solving for Exner, Initial residual = 4.10859e-07, Final residual = 3.50602e-10, No Iterations 15
diagonal:  Solving for rho, Initial residual = 0, Final residual = 0, No Iterations 0
DICPBiCGStab:  Solving for theta, Initial residual = 0.000208615, Final residual = 1.73179e-10, No Iterations 1
DICPCG:  Solving for Exner, Initial residual = 1.69223e-06, Final residual = 1.60729e-09, No Iterations 16
DICPCG:  Solving for Exner, Initial residual = 9.30309e-09, Final residual = 7.20813e-11, No Iterations 10
diagonal:  Solving for rho, Initial residual = 0, Final residual = 0, No Iterations 0
DICPBiCGStab:  Solving for theta, Initial residual = 8.89805e-06, Final residual = 8.06701e-12, No Iterations 1
time step continuity errors : sum local = 1.15809e-09, global = 1.37738e-10, cumulative = 1.84307e-08
Maximum rho difference fraction = 6.58389e-08
Heat error = 3.43504e-13
ExecutionTime = 1112.41 s  ClockTime = 1113 s

Time = 996

Courant Number mean: 0.0459739 max: 0.323865 max Ndt = 0.025748
diagonal:  Solving for rho, Initial residual = 0, Final residual = 0, No Iterations 0
DICPBiCGStab:  Solving for theta, Initial residual = 0.00740943, Final residual = 8.04012e-09, No Iterations 1
DICPCG:  Solving for Exner, Initial residual = 8.17118e-06, Final residual = 7.36036e-09, No Iterations 16
DICPCG:  Solving for Exner, Initial residual = 4.11097e-07, Final residual = 3.46952e-10, No Iterations 15
diagonal:  Solving for rho, Initial residual = 0, Final residual = 0, No Iterations 0
DICPBiCGStab:  Solving for theta, Initial residual = 0.000208919, Final residual = 1.74362e-10, No Iterations 1
DICPCG:  Solving for Exner, Initial residual = 1.86836e-06, Final residual = 1.60993e-09, No Iterations 16
DICPCG:  Solving for Exner, Initial residual = 9.35152e-09, Final residual = 7.04222e-11, No Iterations 10
diagonal:  Solving for rho, Initial residual = 0, Final residual = 0, No Iterations 0
DICPBiCGStab:  Solving for theta, Initial residual = 8.91061e-06, Final residual = 8.10809e-12, No Iterations 1
time step continuity errors : sum local = 1.15663e-09, global = 1.37911e-10, cumulative = 1.85686e-08
Maximum rho difference fraction = 6.55541e-08
Heat error = 3.50057e-13
ExecutionTime = 1114.97 s  ClockTime = 1115 s

Time = 998

Courant Number mean: 0.046077 max: 0.323486 max Ndt = 0.0257307
diagonal:  Solving for rho, Initial residual = 0, Final residual = 0, No Iterations 0
DICPBiCGStab:  Solving for theta, Initial residual = 0.00740767, Final residual = 8.06216e-09, No Iterations 1
DICPCG:  Solving for Exner, Initial residual = 7.94139e-06, Final residual = 7.3051e-09, No Iterations 16
DICPCG:  Solving for Exner, Initial residual = 4.11349e-07, Final residual = 3.44192e-10, No Iterations 15
diagonal:  Solving for rho, Initial residual = 0, Final residual = 0, No Iterations 0
DICPBiCGStab:  Solving for theta, Initial residual = 0.00020936, Final residual = 1.76169e-10, No Iterations 1
DICPCG:  Solving for Exner, Initial residual = 1.89012e-06, Final residual = 1.40674e-09, No Iterations 16
DICPCG:  Solving for Exner, Initial residual = 9.19037e-09, Final residual = 8.91641e-11, No Iterations 9
diagonal:  Solving for rho, Initial residual = 0, Final residual = 0, No Iterations 0
DICPBiCGStab:  Solving for theta, Initial residual = 8.92644e-06, Final residual = 8.15056e-12, No Iterations 1
time step continuity errors : sum local = 1.16131e-09, global = 1.48081e-10, cumulative = 1.87167e-08
Maximum rho difference fraction = 6.86808e-08
Heat error = 3.52416e-13
ExecutionTime = 1117.7 s  ClockTime = 1118 s

Time = 1000

Courant Number mean: 0.0461791 max: 0.32306 max Ndt = 0.0257264
diagonal:  Solving for rho, Initial residual = 0, Final residual = 0, No Iterations 0
DICPBiCGStab:  Solving for theta, Initial residual = 0.0074035, Final residual = 8.06714e-09, No Iterations 1
DICPCG:  Solving for Exner, Initial residual = 8.01914e-06, Final residual = 7.75124e-09, No Iterations 16
DICPCG:  Solving for Exner, Initial residual = 4.11973e-07, Final residual = 3.44709e-10, No Iterations 15
diagonal:  Solving for rho, Initial residual = 0, Final residual = 0, No Iterations 0
DICPBiCGStab:  Solving for theta, Initial residual = 0.00020928, Final residual = 1.77528e-10, No Iterations 1
DICPCG:  Solving for Exner, Initial residual = 1.73662e-06, Final residual = 1.64232e-09, No Iterations 16
DICPCG:  Solving for Exner, Initial residual = 9.39535e-09, Final residual = 6.97558e-11, No Iterations 10
diagonal:  Solving for rho, Initial residual = 0, Final residual = 0, No Iterations 0
DICPBiCGStab:  Solving for theta, Initial residual = 8.92336e-06, Final residual = 8.18971e-12, No Iterations 1
time step continuity errors : sum local = 1.16208e-09, global = 1.54693e-10, cumulative = 1.88714e-08
Maximum rho difference fraction = 6.60629e-08
Heat error = 3.45208e-13
ExecutionTime = 1120.46 s  ClockTime = 1121 s

End

