/*---------------------------------------------------------------------------*\
| =========                 |                                                 |
| \\      /  F ield         | OpenFOAM: The Open Source CFD Toolbox           |
|  \\    /   O peration     | Version:  dev                                   |
|   \\  /    A nd           | Web:      www.OpenFOAM.org                      |
|    \\/     M anipulation  |                                                 |
\*---------------------------------------------------------------------------*/
Build  : dev-c1b380c8677a
Exec   : exnerFoamTurbulence
Date   : May 13 2018
Time   : 17:04:49
Host   : "daniel-XPS-15-9560"
PID    : 21748
I/O    : uncollated
Case   : /home/daniel/OpenFOAM/daniel-dev/run/danCases/exnerFoamTurbulence/coarse
nProcs : 1
sigFpe : Enabling floating point exception trapping (FOAM_SIGFPE).
fileModificationChecking : Monitoring run-time modified files using timeStampMaster (fileModificationSkew 10)
allowSystemOperations : Allowing user-supplied system call operations

// * * * * * * * * * * * * * * * * * * * * * * * * * * * * * * * * * * * * * //
Create time

Create mesh for time = 0


Reading environmentalProperties
Reading thermophysical properties

Cp = 1005 speedSound = speedSound [0 1 -1 0 0 0 0] 347.745 kappa = kappa [0 0 0 0 0 0 0] 0.286267 R = 287.698 RR = 8314.47 Cv = Cv [0 2 -2 -1 0 0 0] 717.302
Maximum acousitic Courant number = ((max(deltaCoeffs)*deltaT)*speedSound) [0 0 0 0 0 0 0] 6.9549
Making the boundary faces orthogonal
Reading thermophysical properties

Selecting thermodynamics package 
{
    type            hePsiThermo;
    energy          sensibleInternalEnergy;
    specie          specie;
    equationOfState perfectGas;
    thermo          hConst;
    transport       const;
    mixture         pureMixture;
}

Reading field Uf

Reading field Exner

Reading field theta

Maximum sponge value = 0
Creating field rho

Calculating face flux field phi

Creating turbulence model

Selecting turbulence model type laminar
Selecting laminar stress model Stokes
Initialising total energy file energy.dat

KE dimensions = [1 -1 -2 0 0 0 0]
internalEnergy dimensions = [1 -1 -2 0 0 0 0]
potentialEnergy dimensions = [1 -1 -2 0 0 0 0]
Vtot = sum(V) [0 3 0 0 0 0 0] 4e+11
KEInitTot = (domainIntegrate(KE)|sum(V)) [1 -1 -2 0 0 0 0] 0
internalInitTot = (domainIntegrate(internalEnergy)|sum(V)) [1 -1 -2 0 0 0 0] 84511.8
potentialInitTot = (domainIntegrate(potentialEnergy)|sum(V)) [1 -1 -2 0 0 0 0] 31360.7

Starting time loop

Time = 2

Courant Number mean: 0 max: 0 max Ndt = 0.0141569
diagonal:  Solving for rho, Initial residual = 0, Final residual = 0, No Iterations 0
DICPBiCGStab:  Solving for theta, Initial residual = 1.78651e-13, Final residual = 1.78651e-13, No Iterations 0
DICPCG:  Solving for Exner, Initial residual = 4.61e-06, Final residual = 3.00092e-09, No Iterations 9
DICPCG:  Solving for Exner, Initial residual = 3.11121e-09, Final residual = 6.29882e-11, No Iterations 5
diagonal:  Solving for rho, Initial residual = 0, Final residual = 0, No Iterations 0
DICPBiCGStab:  Solving for theta, Initial residual = 1.76623e-05, Final residual = 8.83907e-22, No Iterations 1
DICPCG:  Solving for Exner, Initial residual = 2.15973e-06, Final residual = 1.6839e-09, No Iterations 8
DICPCG:  Solving for Exner, Initial residual = 1.70837e-09, Final residual = 7.85533e-11, No Iterations 4
diagonal:  Solving for rho, Initial residual = 0, Final residual = 0, No Iterations 0
DICPBiCGStab:  Solving for theta, Initial residual = 8.64913e-07, Final residual = 3.88155e-23, No Iterations 1
time step continuity errors : sum local = 3.46886e-11, global = 1.30503e-11, cumulative = 1.30503e-11
Maximum rho difference fraction = 4.84295e-10
Heat error = 7.99463e-15
ExecutionTime = 0.32 s  ClockTime = 0 s

Time = 4

Courant Number mean: 1.36066e-05 max: 0.00114053 max Ndt = 0.0141574
diagonal:  Solving for rho, Initial residual = 0, Final residual = 0, No Iterations 0
DICPBiCGStab:  Solving for theta, Initial residual = 3.51496e-05, Final residual = 7.82734e-21, No Iterations 1
DICPCG:  Solving for Exner, Initial residual = 6.35283e-06, Final residual = 6.17529e-09, No Iterations 8
DICPCG:  Solving for Exner, Initial residual = 6.32902e-09, Final residual = 5.38255e-11, No Iterations 6
diagonal:  Solving for rho, Initial residual = 0, Final residual = 0, No Iterations 0
DICPBiCGStab:  Solving for theta, Initial residual = 1.83382e-05, Final residual = 3.8023e-21, No Iterations 1
DICPCG:  Solving for Exner, Initial residual = 1.4012e-06, Final residual = 5.81354e-10, No Iterations 9
DICPCG:  Solving for Exner, Initial residual = 5.88583e-10, Final residual = 5.90294e-11, No Iterations 3
diagonal:  Solving for rho, Initial residual = 0, Final residual = 0, No Iterations 0
DICPBiCGStab:  Solving for theta, Initial residual = 4.09575e-07, Final residual = 1.78814e-23, No Iterations 1
time step continuity errors : sum local = 4.48726e-11, global = 2.3452e-11, cumulative = 3.65024e-11
Maximum rho difference fraction = 6.33851e-10
Heat error = 7.86357e-16
ExecutionTime = 0.57 s  ClockTime = 0 s

Time = 6

Courant Number mean: 3.09366e-05 max: 0.00195239 max Ndt = 0.0141587
diagonal:  Solving for rho, Initial residual = 0, Final residual = 0, No Iterations 0
DICPBiCGStab:  Solving for theta, Initial residual = 7.26307e-05, Final residual = 1.48413e-20, No Iterations 1
DICPCG:  Solving for Exner, Initial residual = 6.66562e-06, Final residual = 5.12627e-09, No Iterations 8
DICPCG:  Solving for Exner, Initial residual = 5.32135e-09, Final residual = 9.73463e-11, No Iterations 5
diagonal:  Solving for rho, Initial residual = 0, Final residual = 0, No Iterations 0
DICPBiCGStab:  Solving for theta, Initial residual = 1.7415e-05, Final residual = 3.58281e-21, No Iterations 1
DICPCG:  Solving for Exner, Initial residual = 2.08939e-06, Final residual = 1.30442e-09, No Iterations 8
DICPCG:  Solving for Exner, Initial residual = 1.41846e-09, Final residual = 6.41181e-11, No Iterations 4
diagonal:  Solving for rho, Initial residual = 0, Final residual = 0, No Iterations 0
DICPBiCGStab:  Solving for theta, Initial residual = 7.65907e-07, Final residual = 1.70338e-22, No Iterations 1
time step continuity errors : sum local = 5.38505e-11, global = 3.35192e-11, cumulative = 7.00216e-11
Maximum rho difference fraction = 9.26785e-10
Heat error = 2.09695e-15
ExecutionTime = 0.82 s  ClockTime = 1 s

Time = 8

Courant Number mean: 5.4e-05 max: 0.00247586 max Ndt = 0.0141602
diagonal:  Solving for rho, Initial residual = 0, Final residual = 0, No Iterations 0
DICPBiCGStab:  Solving for theta, Initial residual = 0.000108448, Final residual = 5.37159e-21, No Iterations 1
DICPCG:  Solving for Exner, Initial residual = 7.59936e-06, Final residual = 5.40867e-09, No Iterations 8
DICPCG:  Solving for Exner, Initial residual = 5.90801e-09, Final residual = 4.88947e-11, No Iterations 6
diagonal:  Solving for rho, Initial residual = 0, Final residual = 0, No Iterations 0
DICPBiCGStab:  Solving for theta, Initial residual = 1.48978e-05, Final residual = 6.0613e-22, No Iterations 1
DICPCG:  Solving for Exner, Initial residual = 2.74619e-06, Final residual = 1.43506e-09, No Iterations 8
DICPCG:  Solving for Exner, Initial residual = 1.47844e-09, Final residual = 6.91441e-11, No Iterations 4
diagonal:  Solving for rho, Initial residual = 0, Final residual = 0, No Iterations 0
DICPBiCGStab:  Solving for theta, Initial residual = 6.19376e-07, Final residual = 2.18224e-22, No Iterations 1
time step continuity errors : sum local = 7.27618e-11, global = 4.36921e-11, cumulative = 1.13714e-10
Maximum rho difference fraction = 1.47198e-09
Heat error = 2.35907e-15
ExecutionTime = 1.06 s  ClockTime = 1 s

Time = 10

Courant Number mean: 8.31954e-05 max: 0.00289804 max Ndt = 0.0141616
diagonal:  Solving for rho, Initial residual = 0, Final residual = 0, No Iterations 0
DICPBiCGStab:  Solving for theta, Initial residual = 0.000138429, Final residual = 5.55928e-21, No Iterations 1
DICPCG:  Solving for Exner, Initial residual = 9.2921e-06, Final residual = 6.4776e-09, No Iterations 8
DICPCG:  Solving for Exner, Initial residual = 6.97696e-09, Final residual = 5.4797e-11, No Iterations 6
diagonal:  Solving for rho, Initial residual = 0, Final residual = 0, No Iterations 0
DICPBiCGStab:  Solving for theta, Initial residual = 1.2178e-05, Final residual = 5.42163e-22, No Iterations 1
DICPCG:  Solving for Exner, Initial residual = 2.9293e-06, Final residual = 1.73226e-09, No Iterations 8
DICPCG:  Solving for Exner, Initial residual = 1.77508e-09, Final residual = 8.03536e-11, No Iterations 4
diagonal:  Solving for rho, Initial residual = 0, Final residual = 0, No Iterations 0
DICPBiCGStab:  Solving for theta, Initial residual = 4.68566e-07, Final residual = 9.74411e-23, No Iterations 1
time step continuity errors : sum local = 9.81182e-11, global = 5.50193e-11, cumulative = 1.68733e-10
Maximum rho difference fraction = 2.17413e-09
Heat error = 1.44165e-15
ExecutionTime = 1.3 s  ClockTime = 1 s

Time = 12

Courant Number mean: 0.00011737 max: 0.00338776 max Ndt = 0.0141631
diagonal:  Solving for rho, Initial residual = 0, Final residual = 0, No Iterations 0
DICPBiCGStab:  Solving for theta, Initial residual = 0.000161923, Final residual = 7.2413e-21, No Iterations 1
DICPCG:  Solving for Exner, Initial residual = 1.0308e-05, Final residual = 7.97409e-09, No Iterations 8
DICPCG:  Solving for Exner, Initial residual = 9.31632e-09, Final residual = 6.55069e-11, No Iterations 6
diagonal:  Solving for rho, Initial residual = 0, Final residual = 0, No Iterations 0
DICPBiCGStab:  Solving for theta, Initial residual = 1.09451e-05, Final residual = 4.59876e-22, No Iterations 1
DICPCG:  Solving for Exner, Initial residual = 3.02375e-06, Final residual = 1.66098e-09, No Iterations 8
DICPCG:  Solving for Exner, Initial residual = 1.80585e-09, Final residual = 7.70729e-11, No Iterations 4
diagonal:  Solving for rho, Initial residual = 0, Final residual = 0, No Iterations 0
DICPBiCGStab:  Solving for theta, Initial residual = 5.96366e-07, Final residual = 2.07088e-22, No Iterations 1
time step continuity errors : sum local = 1.20299e-10, global = 6.46971e-11, cumulative = 2.3343e-10
Maximum rho difference fraction = 2.61306e-09
Heat error = 7.86357e-16
ExecutionTime = 1.54 s  ClockTime = 1 s

Time = 14

Courant Number mean: 0.000154451 max: 0.00399597 max Ndt = 0.0141649
diagonal:  Solving for rho, Initial residual = 0, Final residual = 0, No Iterations 0
DICPBiCGStab:  Solving for theta, Initial residual = 0.000182627, Final residual = 2.89145e-20, No Iterations 1
DICPCG:  Solving for Exner, Initial residual = 1.09525e-05, Final residual = 8.68716e-09, No Iterations 8
DICPCG:  Solving for Exner, Initial residual = 1.00798e-08, Final residual = 7.20221e-11, No Iterations 6
diagonal:  Solving for rho, Initial residual = 0, Final residual = 0, No Iterations 0
DICPBiCGStab:  Solving for theta, Initial residual = 1.15118e-05, Final residual = 5.66271e-22, No Iterations 1
DICPCG:  Solving for Exner, Initial residual = 3.03479e-06, Final residual = 1.61448e-09, No Iterations 8
DICPCG:  Solving for Exner, Initial residual = 1.67478e-09, Final residual = 7.56485e-11, No Iterations 4
diagonal:  Solving for rho, Initial residual = 0, Final residual = 0, No Iterations 0
DICPBiCGStab:  Solving for theta, Initial residual = 3.93946e-07, Final residual = 1.56192e-23, No Iterations 1
time step continuity errors : sum local = 1.34116e-10, global = 6.60907e-11, cumulative = 2.99521e-10
Maximum rho difference fraction = 2.65869e-09
Heat error = 2.09695e-15
ExecutionTime = 1.78 s  ClockTime = 2 s

Time = 16

Courant Number mean: 0.000192793 max: 0.00466381 max Ndt = 0.0141672
diagonal:  Solving for rho, Initial residual = 0, Final residual = 0, No Iterations 0
DICPBiCGStab:  Solving for theta, Initial residual = 0.000205057, Final residual = 8.13351e-21, No Iterations 1
DICPCG:  Solving for Exner, Initial residual = 1.08092e-05, Final residual = 8.43194e-09, No Iterations 8
DICPCG:  Solving for Exner, Initial residual = 9.87358e-09, Final residual = 6.79511e-11, No Iterations 6
diagonal:  Solving for rho, Initial residual = 0, Final residual = 0, No Iterations 0
DICPBiCGStab:  Solving for theta, Initial residual = 1.28026e-05, Final residual = 5.35696e-22, No Iterations 1
DICPCG:  Solving for Exner, Initial residual = 3.19673e-06, Final residual = 1.89816e-09, No Iterations 8
DICPCG:  Solving for Exner, Initial residual = 1.99388e-09, Final residual = 8.32577e-11, No Iterations 4
diagonal:  Solving for rho, Initial residual = 0, Final residual = 0, No Iterations 0
DICPBiCGStab:  Solving for theta, Initial residual = 2.25693e-07, Final residual = 2.79227e-22, No Iterations 1
time step continuity errors : sum local = 1.2938e-10, global = 6.17814e-11, cumulative = 3.61302e-10
Maximum rho difference fraction = 1.96702e-09
Heat error = 2.75225e-15
ExecutionTime = 2.03 s  ClockTime = 2 s

Time = 18

Courant Number mean: 0.000231264 max: 0.00532092 max Ndt = 0.0141701
diagonal:  Solving for rho, Initial residual = 0, Final residual = 0, No Iterations 0
DICPBiCGStab:  Solving for theta, Initial residual = 0.000230921, Final residual = 9.39998e-21, No Iterations 1
DICPCG:  Solving for Exner, Initial residual = 1.00565e-05, Final residual = 7.69749e-09, No Iterations 8
DICPCG:  Solving for Exner, Initial residual = 9.13707e-09, Final residual = 6.45759e-11, No Iterations 6
diagonal:  Solving for rho, Initial residual = 0, Final residual = 0, No Iterations 0
DICPBiCGStab:  Solving for theta, Initial residual = 1.35455e-05, Final residual = 6.21813e-22, No Iterations 1
DICPCG:  Solving for Exner, Initial residual = 3.59761e-06, Final residual = 2.28128e-09, No Iterations 8
DICPCG:  Solving for Exner, Initial residual = 2.36567e-09, Final residual = 9.18753e-11, No Iterations 4
diagonal:  Solving for rho, Initial residual = 0, Final residual = 0, No Iterations 0
DICPBiCGStab:  Solving for theta, Initial residual = 3.14584e-07, Final residual = 1.07601e-22, No Iterations 1
time step continuity errors : sum local = 1.18345e-10, global = 5.40721e-11, cumulative = 4.15374e-10
Maximum rho difference fraction = 1.47661e-09
Heat error = 7.86357e-16
ExecutionTime = 2.27 s  ClockTime = 2 s

Time = 20

Courant Number mean: 0.000270091 max: 0.00594685 max Ndt = 0.0141734
diagonal:  Solving for rho, Initial residual = 0, Final residual = 0, No Iterations 0
DICPBiCGStab:  Solving for theta, Initial residual = 0.000258628, Final residual = 5.4657e-20, No Iterations 1
DICPCG:  Solving for Exner, Initial residual = 1.11992e-05, Final residual = 8.26898e-09, No Iterations 8
DICPCG:  Solving for Exner, Initial residual = 9.87705e-09, Final residual = 7.44739e-11, No Iterations 6
diagonal:  Solving for rho, Initial residual = 0, Final residual = 0, No Iterations 0
DICPBiCGStab:  Solving for theta, Initial residual = 1.33055e-05, Final residual = 6.15484e-22, No Iterations 1
DICPCG:  Solving for Exner, Initial residual = 3.75153e-06, Final residual = 2.5629e-09, No Iterations 8
DICPCG:  Solving for Exner, Initial residual = 2.61999e-09, Final residual = 4.82072e-11, No Iterations 5
diagonal:  Solving for rho, Initial residual = 0, Final residual = 0, No Iterations 0
DICPBiCGStab:  Solving for theta, Initial residual = 2.06826e-07, Final residual = 4.5982e-23, No Iterations 1
time step continuity errors : sum local = 1.21818e-10, global = 5.04947e-11, cumulative = 4.65869e-10
Maximum rho difference fraction = 1.66213e-09
Heat error = 0
ExecutionTime = 2.52 s  ClockTime = 2 s

Time = 22

Courant Number mean: 0.000311663 max: 0.00655794 max Ndt = 0.014177
diagonal:  Solving for rho, Initial residual = 0, Final residual = 0, No Iterations 0
DICPBiCGStab:  Solving for theta, Initial residual = 0.000285625, Final residual = 1.48069e-20, No Iterations 1
DICPCG:  Solving for Exner, Initial residual = 1.24649e-05, Final residual = 8.86298e-09, No Iterations 8
DICPCG:  Solving for Exner, Initial residual = 1.11544e-08, Final residual = 8.8569e-11, No Iterations 6
diagonal:  Solving for rho, Initial residual = 0, Final residual = 0, No Iterations 0
DICPBiCGStab:  Solving for theta, Initial residual = 1.2523e-05, Final residual = 4.33438e-22, No Iterations 1
DICPCG:  Solving for Exner, Initial residual = 3.52668e-06, Final residual = 2.5214e-09, No Iterations 8
DICPCG:  Solving for Exner, Initial residual = 2.56384e-09, Final residual = 4.55689e-11, No Iterations 5
diagonal:  Solving for rho, Initial residual = 0, Final residual = 0, No Iterations 0
DICPBiCGStab:  Solving for theta, Initial residual = 9.95857e-08, Final residual = 4.2777e-24, No Iterations 1
time step continuity errors : sum local = 1.2486e-10, global = 4.7213e-11, cumulative = 5.13082e-10
Maximum rho difference fraction = 1.83244e-09
Heat error = 1.96589e-15
ExecutionTime = 2.76 s  ClockTime = 3 s

Time = 24

Courant Number mean: 0.000360469 max: 0.0071665 max Ndt = 0.0141809
diagonal:  Solving for rho, Initial residual = 0, Final residual = 0, No Iterations 0
DICPBiCGStab:  Solving for theta, Initial residual = 0.000310625, Final residual = 1.59478e-20, No Iterations 1
DICPCG:  Solving for Exner, Initial residual = 1.28352e-05, Final residual = 8.61191e-09, No Iterations 8
DICPCG:  Solving for Exner, Initial residual = 1.19671e-08, Final residual = 9.12238e-11, No Iterations 6
diagonal:  Solving for rho, Initial residual = 0, Final residual = 0, No Iterations 0
DICPBiCGStab:  Solving for theta, Initial residual = 1.18542e-05, Final residual = 6.47144e-22, No Iterations 1
DICPCG:  Solving for Exner, Initial residual = 3.7207e-06, Final residual = 2.52233e-09, No Iterations 8
DICPCG:  Solving for Exner, Initial residual = 2.52756e-09, Final residual = 4.4852e-11, No Iterations 5
diagonal:  Solving for rho, Initial residual = 0, Final residual = 0, No Iterations 0
DICPBiCGStab:  Solving for theta, Initial residual = 1.55331e-07, Final residual = 5.37542e-24, No Iterations 1
time step continuity errors : sum local = 1.26636e-10, global = 4.40425e-11, cumulative = 5.57125e-10
Maximum rho difference fraction = 1.86319e-09
Heat error = 1.57271e-15
ExecutionTime = 2.99 s  ClockTime = 3 s

Time = 26

Courant Number mean: 0.000412728 max: 0.00776495 max Ndt = 0.0141851
diagonal:  Solving for rho, Initial residual = 0, Final residual = 0, No Iterations 0
DICPBiCGStab:  Solving for theta, Initial residual = 0.000334022, Final residual = 1.47774e-20, No Iterations 1
DICPCG:  Solving for Exner, Initial residual = 1.32385e-05, Final residual = 8.15266e-09, No Iterations 8
DICPCG:  Solving for Exner, Initial residual = 1.2152e-08, Final residual = 9.62568e-11, No Iterations 6
diagonal:  Solving for rho, Initial residual = 0, Final residual = 0, No Iterations 0
DICPBiCGStab:  Solving for theta, Initial residual = 1.16421e-05, Final residual = 5.77191e-22, No Iterations 1
DICPCG:  Solving for Exner, Initial residual = 4.09786e-06, Final residual = 2.61432e-09, No Iterations 8
DICPCG:  Solving for Exner, Initial residual = 2.64461e-09, Final residual = 5.16177e-11, No Iterations 5
diagonal:  Solving for rho, Initial residual = 0, Final residual = 0, No Iterations 0
DICPBiCGStab:  Solving for theta, Initial residual = 1.59321e-07, Final residual = 1.94409e-22, No Iterations 1
time step continuity errors : sum local = 1.29831e-10, global = 4.01335e-11, cumulative = 5.97258e-10
Maximum rho difference fraction = 1.84046e-09
Heat error = -1.3106e-16
ExecutionTime = 3.24 s  ClockTime = 3 s

Time = 28

Courant Number mean: 0.000466879 max: 0.00834066 max Ndt = 0.0141896
diagonal:  Solving for rho, Initial residual = 0, Final residual = 0, No Iterations 0
DICPBiCGStab:  Solving for theta, Initial residual = 0.000356969, Final residual = 7.63611e-20, No Iterations 1
DICPCG:  Solving for Exner, Initial residual = 1.43197e-05, Final residual = 8.61404e-09, No Iterations 8
DICPCG:  Solving for Exner, Initial residual = 1.2888e-08, Final residual = 5.26755e-11, No Iterations 7
diagonal:  Solving for rho, Initial residual = 0, Final residual = 0, No Iterations 0
DICPBiCGStab:  Solving for theta, Initial residual = 1.18746e-05, Final residual = 5.86561e-22, No Iterations 1
DICPCG:  Solving for Exner, Initial residual = 4.23412e-06, Final residual = 2.55446e-09, No Iterations 8
DICPCG:  Solving for Exner, Initial residual = 2.58334e-09, Final residual = 5.35767e-11, No Iterations 5
diagonal:  Solving for rho, Initial residual = 0, Final residual = 0, No Iterations 0
DICPBiCGStab:  Solving for theta, Initial residual = 1.12447e-07, Final residual = 4.58694e-24, No Iterations 1
time step continuity errors : sum local = 1.35347e-10, global = 3.65613e-11, cumulative = 6.33819e-10
Maximum rho difference fraction = 2.26584e-09
Heat error = 5.89768e-15
ExecutionTime = 3.48 s  ClockTime = 3 s

Time = 30

Courant Number mean: 0.000521747 max: 0.0088956 max Ndt = 0.0141944
diagonal:  Solving for rho, Initial residual = 0, Final residual = 0, No Iterations 0
DICPBiCGStab:  Solving for theta, Initial residual = 0.00038047, Final residual = 1.73098e-20, No Iterations 1
DICPCG:  Solving for Exner, Initial residual = 1.49728e-05, Final residual = 8.61973e-09, No Iterations 8
DICPCG:  Solving for Exner, Initial residual = 1.32486e-08, Final residual = 5.39338e-11, No Iterations 7
diagonal:  Solving for rho, Initial residual = 0, Final residual = 0, No Iterations 0
DICPBiCGStab:  Solving for theta, Initial residual = 1.24018e-05, Final residual = 6.04515e-22, No Iterations 1
DICPCG:  Solving for Exner, Initial residual = 4.23424e-06, Final residual = 2.34844e-09, No Iterations 8
DICPCG:  Solving for Exner, Initial residual = 2.36857e-09, Final residual = 4.8199e-11, No Iterations 5
diagonal:  Solving for rho, Initial residual = 0, Final residual = 0, No Iterations 0
DICPBiCGStab:  Solving for theta, Initial residual = 1.29807e-07, Final residual = 1.16715e-22, No Iterations 1
time step continuity errors : sum local = 1.40449e-10, global = 3.40942e-11, cumulative = 6.67914e-10
Maximum rho difference fraction = 2.69669e-09
Heat error = 6.1598e-15
ExecutionTime = 3.73 s  ClockTime = 4 s

Time = 32

Courant Number mean: 0.000575806 max: 0.0094508 max Ndt = 0.0141996
diagonal:  Solving for rho, Initial residual = 0, Final residual = 0, No Iterations 0
DICPBiCGStab:  Solving for theta, Initial residual = 0.000405121, Final residual = 1.85227e-20, No Iterations 1
DICPCG:  Solving for Exner, Initial residual = 1.51334e-05, Final residual = 8.8895e-09, No Iterations 8
DICPCG:  Solving for Exner, Initial residual = 1.36052e-08, Final residual = 5.41196e-11, No Iterations 7
diagonal:  Solving for rho, Initial residual = 0, Final residual = 0, No Iterations 0
DICPBiCGStab:  Solving for theta, Initial residual = 1.30722e-05, Final residual = 5.60211e-21, No Iterations 1
DICPCG:  Solving for Exner, Initial residual = 4.34515e-06, Final residual = 2.14654e-09, No Iterations 8
DICPCG:  Solving for Exner, Initial residual = 2.17199e-09, Final residual = 9.88197e-11, No Iterations 4
diagonal:  Solving for rho, Initial residual = 0, Final residual = 0, No Iterations 0
DICPBiCGStab:  Solving for theta, Initial residual = 2.04164e-07, Final residual = 5.0072e-22, No Iterations 1
time step continuity errors : sum local = 1.44322e-10, global = 2.90399e-11, cumulative = 6.96953e-10
Maximum rho difference fraction = 1.89261e-09
Heat error = 6.55298e-15
ExecutionTime = 3.97 s  ClockTime = 4 s

Time = 34

Courant Number mean: 0.000627826 max: 0.0100352 max Ndt = 0.014205
diagonal:  Solving for rho, Initial residual = 0, Final residual = 0, No Iterations 0
DICPBiCGStab:  Solving for theta, Initial residual = 0.000431206, Final residual = 2.0035e-20, No Iterations 1
DICPCG:  Solving for Exner, Initial residual = 1.5435e-05, Final residual = 8.58036e-09, No Iterations 8
DICPCG:  Solving for Exner, Initial residual = 1.3691e-08, Final residual = 5.68196e-11, No Iterations 7
diagonal:  Solving for rho, Initial residual = 0, Final residual = 0, No Iterations 0
DICPBiCGStab:  Solving for theta, Initial residual = 1.37435e-05, Final residual = 2.08211e-21, No Iterations 1
DICPCG:  Solving for Exner, Initial residual = 4.32344e-06, Final residual = 1.97656e-09, No Iterations 8
DICPCG:  Solving for Exner, Initial residual = 2.06529e-09, Final residual = 8.72094e-11, No Iterations 4
diagonal:  Solving for rho, Initial residual = 0, Final residual = 0, No Iterations 0
DICPBiCGStab:  Solving for theta, Initial residual = 2.27116e-07, Final residual = 1.27293e-22, No Iterations 1
time step continuity errors : sum local = 1.55283e-10, global = 2.73714e-11, cumulative = 7.24325e-10
Maximum rho difference fraction = 2.03745e-09
Heat error = 1.44165e-15
ExecutionTime = 4.21 s  ClockTime = 4 s

Time = 36

Courant Number mean: 0.000677486 max: 0.0106692 max Ndt = 0.0142108
diagonal:  Solving for rho, Initial residual = 0, Final residual = 0, No Iterations 0
DICPBiCGStab:  Solving for theta, Initial residual = 0.000458769, Final residual = 1.88523e-20, No Iterations 1
DICPCG:  Solving for Exner, Initial residual = 1.51899e-05, Final residual = 7.26619e-09, No Iterations 8
DICPCG:  Solving for Exner, Initial residual = 1.33783e-08, Final residual = 5.73458e-11, No Iterations 7
diagonal:  Solving for rho, Initial residual = 0, Final residual = 0, No Iterations 0
DICPBiCGStab:  Solving for theta, Initial residual = 1.42681e-05, Final residual = 5.72497e-22, No Iterations 1
DICPCG:  Solving for Exner, Initial residual = 4.35846e-06, Final residual = 2.12056e-09, No Iterations 8
DICPCG:  Solving for Exner, Initial residual = 2.22143e-09, Final residual = 9.46253e-11, No Iterations 4
diagonal:  Solving for rho, Initial residual = 0, Final residual = 0, No Iterations 0
DICPBiCGStab:  Solving for theta, Initial residual = 1.59481e-07, Final residual = 6.3855e-22, No Iterations 1
time step continuity errors : sum local = 1.69695e-10, global = 2.87872e-11, cumulative = 7.53112e-10
Maximum rho difference fraction = 2.69546e-09
Heat error = 9.17417e-15
ExecutionTime = 4.46 s  ClockTime = 4 s

Time = 38

Courant Number mean: 0.000725063 max: 0.0113514 max Ndt = 0.014217
diagonal:  Solving for rho, Initial residual = 0, Final residual = 0, No Iterations 0
DICPBiCGStab:  Solving for theta, Initial residual = 0.000487446, Final residual = 7.40137e-20, No Iterations 1
DICPCG:  Solving for Exner, Initial residual = 1.44755e-05, Final residual = 1.365e-08, No Iterations 7
DICPCG:  Solving for Exner, Initial residual = 2.04224e-08, Final residual = 7.16147e-11, No Iterations 7
diagonal:  Solving for rho, Initial residual = 0, Final residual = 0, No Iterations 0
DICPBiCGStab:  Solving for theta, Initial residual = 1.45377e-05, Final residual = 5.91214e-22, No Iterations 1
DICPCG:  Solving for Exner, Initial residual = 4.53492e-06, Final residual = 2.35237e-09, No Iterations 8
DICPCG:  Solving for Exner, Initial residual = 2.42648e-09, Final residual = 4.58274e-11, No Iterations 5
diagonal:  Solving for rho, Initial residual = 0, Final residual = 0, No Iterations 0
DICPBiCGStab:  Solving for theta, Initial residual = 1.55535e-07, Final residual = 1.53807e-22, No Iterations 1
time step continuity errors : sum local = 1.65659e-10, global = 3.0491e-11, cumulative = 7.83603e-10
Maximum rho difference fraction = 2.50123e-09
Heat error = 5.89768e-15
ExecutionTime = 4.69 s  ClockTime = 5 s

Time = 40

Courant Number mean: 0.00077081 max: 0.0120577 max Ndt = 0.0142236
diagonal:  Solving for rho, Initial residual = 0, Final residual = 0, No Iterations 0
DICPBiCGStab:  Solving for theta, Initial residual = 0.000516667, Final residual = 2.22723e-20, No Iterations 1
DICPCG:  Solving for Exner, Initial residual = 1.46006e-05, Final residual = 1.30985e-08, No Iterations 7
DICPCG:  Solving for Exner, Initial residual = 2.00463e-08, Final residual = 6.83905e-11, No Iterations 7
diagonal:  Solving for rho, Initial residual = 0, Final residual = 0, No Iterations 0
DICPBiCGStab:  Solving for theta, Initial residual = 1.45353e-05, Final residual = 3.03759e-21, No Iterations 1
DICPCG:  Solving for Exner, Initial residual = 4.61344e-06, Final residual = 2.40389e-09, No Iterations 8
DICPCG:  Solving for Exner, Initial residual = 2.53237e-09, Final residual = 4.86451e-11, No Iterations 5
diagonal:  Solving for rho, Initial residual = 0, Final residual = 0, No Iterations 0
DICPBiCGStab:  Solving for theta, Initial residual = 2.13577e-07, Final residual = 2.15175e-22, No Iterations 1
time step continuity errors : sum local = 1.65443e-10, global = 3.25315e-11, cumulative = 8.16135e-10
Maximum rho difference fraction = 2.30109e-09
Heat error = 6.55298e-16
ExecutionTime = 4.94 s  ClockTime = 5 s

Time = 42

Courant Number mean: 0.000815207 max: 0.0127536 max Ndt = 0.0142305
diagonal:  Solving for rho, Initial residual = 0, Final residual = 0, No Iterations 0
DICPBiCGStab:  Solving for theta, Initial residual = 0.000545825, Final residual = 2.61655e-20, No Iterations 1
DICPCG:  Solving for Exner, Initial residual = 1.49277e-05, Final residual = 6.28784e-09, No Iterations 8
DICPCG:  Solving for Exner, Initial residual = 1.3524e-08, Final residual = 4.53098e-11, No Iterations 7
diagonal:  Solving for rho, Initial residual = 0, Final residual = 0, No Iterations 0
DICPBiCGStab:  Solving for theta, Initial residual = 1.43336e-05, Final residual = 6.24204e-22, No Iterations 1
DICPCG:  Solving for Exner, Initial residual = 4.47999e-06, Final residual = 2.15911e-09, No Iterations 8
DICPCG:  Solving for Exner, Initial residual = 2.33126e-09, Final residual = 9.79648e-11, No Iterations 4
diagonal:  Solving for rho, Initial residual = 0, Final residual = 0, No Iterations 0
DICPBiCGStab:  Solving for theta, Initial residual = 2.14876e-07, Final residual = 5.47923e-22, No Iterations 1
time step continuity errors : sum local = 1.65505e-10, global = 3.65983e-11, cumulative = 8.52733e-10
Maximum rho difference fraction = 2.87975e-09
Heat error = -8.38781e-15
ExecutionTime = 5.19 s  ClockTime = 5 s

Time = 44

Courant Number mean: 0.000859073 max: 0.0134139 max Ndt = 0.0142377
diagonal:  Solving for rho, Initial residual = 0, Final residual = 0, No Iterations 0
DICPBiCGStab:  Solving for theta, Initial residual = 0.000574486, Final residual = 3.27442e-20, No Iterations 1
DICPCG:  Solving for Exner, Initial residual = 1.48216e-05, Final residual = 6.88434e-09, No Iterations 8
DICPCG:  Solving for Exner, Initial residual = 1.40112e-08, Final residual = 4.80417e-11, No Iterations 7
diagonal:  Solving for rho, Initial residual = 0, Final residual = 0, No Iterations 0
DICPBiCGStab:  Solving for theta, Initial residual = 1.40492e-05, Final residual = 6.10914e-22, No Iterations 1
DICPCG:  Solving for Exner, Initial residual = 4.28463e-06, Final residual = 1.94841e-09, No Iterations 8
DICPCG:  Solving for Exner, Initial residual = 2.11541e-09, Final residual = 8.48363e-11, No Iterations 4
diagonal:  Solving for rho, Initial residual = 0, Final residual = 0, No Iterations 0
DICPBiCGStab:  Solving for theta, Initial residual = 1.41683e-07, Final residual = 4.7707e-23, No Iterations 1
time step continuity errors : sum local = 1.73941e-10, global = 3.7611e-11, cumulative = 8.90344e-10
Maximum rho difference fraction = 2.84548e-09
Heat error = 1.44165e-15
ExecutionTime = 5.44 s  ClockTime = 5 s

Time = 46

Courant Number mean: 0.000902906 max: 0.0140376 max Ndt = 0.0142451
diagonal:  Solving for rho, Initial residual = 0, Final residual = 0, No Iterations 0
DICPBiCGStab:  Solving for theta, Initial residual = 0.000602483, Final residual = 2.81764e-20, No Iterations 1
DICPCG:  Solving for Exner, Initial residual = 1.43785e-05, Final residual = 6.6159e-09, No Iterations 8
DICPCG:  Solving for Exner, Initial residual = 1.37543e-08, Final residual = 4.998e-11, No Iterations 7
diagonal:  Solving for rho, Initial residual = 0, Final residual = 0, No Iterations 0
DICPBiCGStab:  Solving for theta, Initial residual = 1.37912e-05, Final residual = 5.08612e-22, No Iterations 1
DICPCG:  Solving for Exner, Initial residual = 4.40064e-06, Final residual = 2.04581e-09, No Iterations 8
DICPCG:  Solving for Exner, Initial residual = 2.22078e-09, Final residual = 9.50611e-11, No Iterations 4
diagonal:  Solving for rho, Initial residual = 0, Final residual = 0, No Iterations 0
DICPBiCGStab:  Solving for theta, Initial residual = 1.08826e-07, Final residual = 6.33036e-24, No Iterations 1
time step continuity errors : sum local = 1.85548e-10, global = 3.56759e-11, cumulative = 9.2602e-10
Maximum rho difference fraction = 2.18034e-09
Heat error = 1.83483e-15
ExecutionTime = 5.69 s  ClockTime = 6 s

Time = 48

Courant Number mean: 0.000946551 max: 0.0146454 max Ndt = 0.0142527
diagonal:  Solving for rho, Initial residual = 0, Final residual = 0, No Iterations 0
DICPBiCGStab:  Solving for theta, Initial residual = 0.000629888, Final residual = 3.13487e-20, No Iterations 1
DICPCG:  Solving for Exner, Initial residual = 1.41878e-05, Final residual = 7.04071e-09, No Iterations 8
DICPCG:  Solving for Exner, Initial residual = 1.43356e-08, Final residual = 4.85954e-11, No Iterations 7
diagonal:  Solving for rho, Initial residual = 0, Final residual = 0, No Iterations 0
DICPBiCGStab:  Solving for theta, Initial residual = 1.36369e-05, Final residual = 5.62456e-22, No Iterations 1
DICPCG:  Solving for Exner, Initial residual = 4.44251e-06, Final residual = 2.10241e-09, No Iterations 8
DICPCG:  Solving for Exner, Initial residual = 2.26298e-09, Final residual = 9.75344e-11, No Iterations 4
diagonal:  Solving for rho, Initial residual = 0, Final residual = 0, No Iterations 0
DICPBiCGStab:  Solving for theta, Initial residual = 1.4111e-07, Final residual = 6.3045e-23, No Iterations 1
time step continuity errors : sum local = 2.00392e-10, global = 3.09002e-11, cumulative = 9.5692e-10
Maximum rho difference fraction = 2.12282e-09
Heat error = -2.62119e-16
ExecutionTime = 5.94 s  ClockTime = 6 s

Time = 50

Courant Number mean: 0.000991533 max: 0.0152626 max Ndt = 0.0142604
diagonal:  Solving for rho, Initial residual = 0, Final residual = 0, No Iterations 0
DICPBiCGStab:  Solving for theta, Initial residual = 0.000656948, Final residual = 2.21776e-20, No Iterations 1
DICPCG:  Solving for Exner, Initial residual = 1.42664e-05, Final residual = 7.51751e-09, No Iterations 8
DICPCG:  Solving for Exner, Initial residual = 1.53272e-08, Final residual = 5.5481e-11, No Iterations 7
diagonal:  Solving for rho, Initial residual = 0, Final residual = 0, No Iterations 0
DICPBiCGStab:  Solving for theta, Initial residual = 1.36145e-05, Final residual = 7.23513e-22, No Iterations 1
DICPCG:  Solving for Exner, Initial residual = 4.36544e-06, Final residual = 1.98887e-09, No Iterations 8
DICPCG:  Solving for Exner, Initial residual = 2.10889e-09, Final residual = 8.79483e-11, No Iterations 4
diagonal:  Solving for rho, Initial residual = 0, Final residual = 0, No Iterations 0
DICPBiCGStab:  Solving for theta, Initial residual = 1.16122e-07, Final residual = 5.18048e-23, No Iterations 1
time step continuity errors : sum local = 2.1224e-10, global = 2.4785e-11, cumulative = 9.81705e-10
Maximum rho difference fraction = 2.11298e-09
Heat error = 1.17954e-15
ExecutionTime = 6.18 s  ClockTime = 6 s

Time = 52

Courant Number mean: 0.00103826 max: 0.0159011 max Ndt = 0.0142683
diagonal:  Solving for rho, Initial residual = 0, Final residual = 0, No Iterations 0
DICPBiCGStab:  Solving for theta, Initial residual = 0.00068397, Final residual = 2.33033e-19, No Iterations 1
DICPCG:  Solving for Exner, Initial residual = 1.41652e-05, Final residual = 7.80163e-09, No Iterations 8
DICPCG:  Solving for Exner, Initial residual = 1.60505e-08, Final residual = 5.75069e-11, No Iterations 7
diagonal:  Solving for rho, Initial residual = 0, Final residual = 0, No Iterations 0
DICPBiCGStab:  Solving for theta, Initial residual = 1.36873e-05, Final residual = 2.93597e-21, No Iterations 1
DICPCG:  Solving for Exner, Initial residual = 4.22627e-06, Final residual = 1.87035e-09, No Iterations 8
DICPCG:  Solving for Exner, Initial residual = 1.97187e-09, Final residual = 7.51926e-11, No Iterations 4
diagonal:  Solving for rho, Initial residual = 0, Final residual = 0, No Iterations 0
DICPBiCGStab:  Solving for theta, Initial residual = 6.52133e-08, Final residual = 2.4467e-24, No Iterations 1
time step continuity errors : sum local = 2.15237e-10, global = 1.9353e-11, cumulative = 1.00106e-09
Maximum rho difference fraction = 2.09456e-09
Heat error = -3.01437e-15
ExecutionTime = 6.42 s  ClockTime = 6 s

Time = 54

Courant Number mean: 0.00108465 max: 0.0165539 max Ndt = 0.0142765
diagonal:  Solving for rho, Initial residual = 0, Final residual = 0, No Iterations 0
DICPBiCGStab:  Solving for theta, Initial residual = 0.00071124, Final residual = 3.14857e-20, No Iterations 1
DICPCG:  Solving for Exner, Initial residual = 1.38416e-05, Final residual = 7.97555e-09, No Iterations 8
DICPCG:  Solving for Exner, Initial residual = 1.66186e-08, Final residual = 5.39142e-11, No Iterations 7
diagonal:  Solving for rho, Initial residual = 0, Final residual = 0, No Iterations 0
DICPBiCGStab:  Solving for theta, Initial residual = 1.37665e-05, Final residual = 5.80283e-22, No Iterations 1
DICPCG:  Solving for Exner, Initial residual = 4.26819e-06, Final residual = 1.86705e-09, No Iterations 8
DICPCG:  Solving for Exner, Initial residual = 1.95426e-09, Final residual = 6.50645e-11, No Iterations 4
diagonal:  Solving for rho, Initial residual = 0, Final residual = 0, No Iterations 0
DICPBiCGStab:  Solving for theta, Initial residual = 7.63827e-08, Final residual = 4.41284e-22, No Iterations 1
time step continuity errors : sum local = 2.12754e-10, global = 1.4933e-11, cumulative = 1.01599e-09
Maximum rho difference fraction = 2.32979e-09
Heat error = 5.89768e-15
ExecutionTime = 6.68 s  ClockTime = 7 s

Time = 56

Courant Number mean: 0.00112986 max: 0.0172051 max Ndt = 0.0142849
diagonal:  Solving for rho, Initial residual = 0, Final residual = 0, No Iterations 0
DICPBiCGStab:  Solving for theta, Initial residual = 0.000738737, Final residual = 2.58972e-20, No Iterations 1
DICPCG:  Solving for Exner, Initial residual = 1.37828e-05, Final residual = 7.96103e-09, No Iterations 8
DICPCG:  Solving for Exner, Initial residual = 1.70642e-08, Final residual = 5.72646e-11, No Iterations 7
diagonal:  Solving for rho, Initial residual = 0, Final residual = 0, No Iterations 0
DICPBiCGStab:  Solving for theta, Initial residual = 1.37649e-05, Final residual = 6.13271e-22, No Iterations 1
DICPCG:  Solving for Exner, Initial residual = 4.23461e-06, Final residual = 1.82845e-09, No Iterations 8
DICPCG:  Solving for Exner, Initial residual = 1.91805e-09, Final residual = 6.78035e-11, No Iterations 4
diagonal:  Solving for rho, Initial residual = 0, Final residual = 0, No Iterations 0
DICPBiCGStab:  Solving for theta, Initial residual = 8.67236e-08, Final residual = 1.34765e-22, No Iterations 1
time step continuity errors : sum local = 2.0994e-10, global = 1.15162e-11, cumulative = 1.02751e-09
Maximum rho difference fraction = 2.98374e-09
Heat error = 4.45602e-15
ExecutionTime = 6.92 s  ClockTime = 7 s

Time = 58

Courant Number mean: 0.00117308 max: 0.0178434 max Ndt = 0.0142935
diagonal:  Solving for rho, Initial residual = 0, Final residual = 0, No Iterations 0
DICPBiCGStab:  Solving for theta, Initial residual = 0.000766239, Final residual = 3.27709e-20, No Iterations 1
DICPCG:  Solving for Exner, Initial residual = 1.38482e-05, Final residual = 8.04359e-09, No Iterations 8
DICPCG:  Solving for Exner, Initial residual = 1.75529e-08, Final residual = 6.14647e-11, No Iterations 7
diagonal:  Solving for rho, Initial residual = 0, Final residual = 0, No Iterations 0
DICPBiCGStab:  Solving for theta, Initial residual = 1.3655e-05, Final residual = 6.99344e-22, No Iterations 1
DICPCG:  Solving for Exner, Initial residual = 4.07157e-06, Final residual = 1.76221e-09, No Iterations 8
DICPCG:  Solving for Exner, Initial residual = 1.84392e-09, Final residual = 7.50112e-11, No Iterations 4
diagonal:  Solving for rho, Initial residual = 0, Final residual = 0, No Iterations 0
DICPBiCGStab:  Solving for theta, Initial residual = 6.75501e-08, Final residual = 3.14e-22, No Iterations 1
time step continuity errors : sum local = 2.08446e-10, global = 8.47289e-12, cumulative = 1.03598e-09
Maximum rho difference fraction = 3.52868e-09
Heat error = 1.17954e-15
ExecutionTime = 7.16 s  ClockTime = 7 s

Time = 60

Courant Number mean: 0.00121326 max: 0.0184692 max Ndt = 0.0143022
diagonal:  Solving for rho, Initial residual = 0, Final residual = 0, No Iterations 0
DICPBiCGStab:  Solving for theta, Initial residual = 0.000793482, Final residual = 3.89539e-20, No Iterations 1
DICPCG:  Solving for Exner, Initial residual = 1.35211e-05, Final residual = 8.45689e-09, No Iterations 8
DICPCG:  Solving for Exner, Initial residual = 1.82348e-08, Final residual = 6.17306e-11, No Iterations 7
diagonal:  Solving for rho, Initial residual = 0, Final residual = 0, No Iterations 0
DICPBiCGStab:  Solving for theta, Initial residual = 1.34854e-05, Final residual = 6.14104e-22, No Iterations 1
DICPCG:  Solving for Exner, Initial residual = 3.89663e-06, Final residual = 1.71702e-09, No Iterations 8
DICPCG:  Solving for Exner, Initial residual = 1.7662e-09, Final residual = 8.03381e-11, No Iterations 4
diagonal:  Solving for rho, Initial residual = 0, Final residual = 0, No Iterations 0
DICPBiCGStab:  Solving for theta, Initial residual = 5.07258e-08, Final residual = 2.2508e-24, No Iterations 1
time step continuity errors : sum local = 2.08019e-10, global = 5.48327e-12, cumulative = 1.04146e-09
Maximum rho difference fraction = 3.7107e-09
Heat error = 1.96589e-15
ExecutionTime = 7.41 s  ClockTime = 7 s

Time = 62

Courant Number mean: 0.00124918 max: 0.0190899 max Ndt = 0.0143109
diagonal:  Solving for rho, Initial residual = 0, Final residual = 0, No Iterations 0
DICPBiCGStab:  Solving for theta, Initial residual = 0.000820322, Final residual = 1.80673e-19, No Iterations 1
DICPCG:  Solving for Exner, Initial residual = 1.29333e-05, Final residual = 8.30889e-09, No Iterations 8
DICPCG:  Solving for Exner, Initial residual = 1.83205e-08, Final residual = 6.27051e-11, No Iterations 7
diagonal:  Solving for rho, Initial residual = 0, Final residual = 0, No Iterations 0
DICPBiCGStab:  Solving for theta, Initial residual = 1.33404e-05, Final residual = 2.78794e-21, No Iterations 1
DICPCG:  Solving for Exner, Initial residual = 3.80121e-06, Final residual = 1.85134e-09, No Iterations 8
DICPCG:  Solving for Exner, Initial residual = 1.86434e-09, Final residual = 8.15906e-11, No Iterations 4
diagonal:  Solving for rho, Initial residual = 0, Final residual = 0, No Iterations 0
DICPBiCGStab:  Solving for theta, Initial residual = 5.17994e-08, Final residual = 2.10281e-24, No Iterations 1
time step continuity errors : sum local = 2.10525e-10, global = 2.97797e-12, cumulative = 1.04444e-09
Maximum rho difference fraction = 5.05562e-09
Heat error = 2.49013e-15
ExecutionTime = 7.66 s  ClockTime = 8 s

Time = 64

Courant Number mean: 0.00127978 max: 0.0197114 max Ndt = 0.0143198
diagonal:  Solving for rho, Initial residual = 0, Final residual = 0, No Iterations 0
DICPBiCGStab:  Solving for theta, Initial residual = 0.000846816, Final residual = 1.75717e-19, No Iterations 1
DICPCG:  Solving for Exner, Initial residual = 1.22032e-05, Final residual = 7.49591e-09, No Iterations 8
DICPCG:  Solving for Exner, Initial residual = 1.7773e-08, Final residual = 6.30614e-11, No Iterations 7
diagonal:  Solving for rho, Initial residual = 0, Final residual = 0, No Iterations 0
DICPBiCGStab:  Solving for theta, Initial residual = 1.32815e-05, Final residual = 7.02216e-22, No Iterations 1
DICPCG:  Solving for Exner, Initial residual = 3.73767e-06, Final residual = 2.06308e-09, No Iterations 8
DICPCG:  Solving for Exner, Initial residual = 2.06396e-09, Final residual = 8.08552e-11, No Iterations 4
diagonal:  Solving for rho, Initial residual = 0, Final residual = 0, No Iterations 0
DICPBiCGStab:  Solving for theta, Initial residual = 5.7008e-08, Final residual = 2.76675e-24, No Iterations 1
time step continuity errors : sum local = 2.12677e-10, global = 1.17672e-12, cumulative = 1.04562e-09
Maximum rho difference fraction = 7.51773e-09
Heat error = 2.88331e-15
ExecutionTime = 7.91 s  ClockTime = 8 s

Time = 66

Courant Number mean: 0.00130467 max: 0.0203338 max Ndt = 0.0143287
diagonal:  Solving for rho, Initial residual = 0, Final residual = 0, No Iterations 0
DICPBiCGStab:  Solving for theta, Initial residual = 0.000873163, Final residual = 3.60955e-20, No Iterations 1
DICPCG:  Solving for Exner, Initial residual = 1.12997e-05, Final residual = 5.68352e-09, No Iterations 8
DICPCG:  Solving for Exner, Initial residual = 1.63821e-08, Final residual = 5.9074e-11, No Iterations 7
diagonal:  Solving for rho, Initial residual = 0, Final residual = 0, No Iterations 0
DICPBiCGStab:  Solving for theta, Initial residual = 1.33269e-05, Final residual = 5.86722e-22, No Iterations 1
DICPCG:  Solving for Exner, Initial residual = 3.7187e-06, Final residual = 2.28555e-09, No Iterations 8
DICPCG:  Solving for Exner, Initial residual = 2.30559e-09, Final residual = 9.30984e-11, No Iterations 4
diagonal:  Solving for rho, Initial residual = 0, Final residual = 0, No Iterations 0
DICPBiCGStab:  Solving for theta, Initial residual = 5.05791e-08, Final residual = 2.06667e-24, No Iterations 1
time step continuity errors : sum local = 2.11221e-10, global = -2.30632e-13, cumulative = 1.04539e-09
Maximum rho difference fraction = 1.0139e-08
Heat error = 1.83483e-15
ExecutionTime = 8.16 s  ClockTime = 8 s

Time = 68

Courant Number mean: 0.00132511 max: 0.0209539 max Ndt = 0.0143378
diagonal:  Solving for rho, Initial residual = 0, Final residual = 0, No Iterations 0
DICPBiCGStab:  Solving for theta, Initial residual = 0.000899571, Final residual = 3.18265e-19, No Iterations 1
DICPCG:  Solving for Exner, Initial residual = 1.08699e-05, Final residual = 5.07885e-09, No Iterations 8
DICPCG:  Solving for Exner, Initial residual = 1.64751e-08, Final residual = 5.71371e-11, No Iterations 7
diagonal:  Solving for rho, Initial residual = 0, Final residual = 0, No Iterations 0
DICPBiCGStab:  Solving for theta, Initial residual = 1.34554e-05, Final residual = 6.2017e-22, No Iterations 1
DICPCG:  Solving for Exner, Initial residual = 3.69232e-06, Final residual = 2.4924e-09, No Iterations 8
DICPCG:  Solving for Exner, Initial residual = 2.54476e-09, Final residual = 9.97466e-11, No Iterations 4
diagonal:  Solving for rho, Initial residual = 0, Final residual = 0, No Iterations 0
DICPBiCGStab:  Solving for theta, Initial residual = 4.57413e-08, Final residual = 2.09832e-24, No Iterations 1
time step continuity errors : sum local = 2.08915e-10, global = -1.01807e-12, cumulative = 1.04437e-09
Maximum rho difference fraction = 1.24057e-08
Heat error = -1.44165e-15
ExecutionTime = 8.41 s  ClockTime = 8 s

Time = 70

Courant Number mean: 0.00135661 max: 0.0215706 max Ndt = 0.0143468
diagonal:  Solving for rho, Initial residual = 0, Final residual = 0, No Iterations 0
DICPBiCGStab:  Solving for theta, Initial residual = 0.000926166, Final residual = 1.97242e-19, No Iterations 1
DICPCG:  Solving for Exner, Initial residual = 1.10516e-05, Final residual = 6.76921e-09, No Iterations 8
DICPCG:  Solving for Exner, Initial residual = 1.85057e-08, Final residual = 5.90075e-11, No Iterations 7
diagonal:  Solving for rho, Initial residual = 0, Final residual = 0, No Iterations 0
DICPBiCGStab:  Solving for theta, Initial residual = 1.36398e-05, Final residual = 5.68558e-22, No Iterations 1
DICPCG:  Solving for Exner, Initial residual = 3.48814e-06, Final residual = 2.40286e-09, No Iterations 8
DICPCG:  Solving for Exner, Initial residual = 2.45042e-09, Final residual = 9.53301e-11, No Iterations 4
diagonal:  Solving for rho, Initial residual = 0, Final residual = 0, No Iterations 0
DICPBiCGStab:  Solving for theta, Initial residual = 6.23801e-08, Final residual = 2.81352e-24, No Iterations 1
time step continuity errors : sum local = 2.09928e-10, global = -9.41988e-13, cumulative = 1.04343e-09
Maximum rho difference fraction = 1.37815e-08
Heat error = -3.53861e-15
ExecutionTime = 8.66 s  ClockTime = 9 s

Time = 72

Courant Number mean: 0.00139132 max: 0.0221876 max Ndt = 0.0143559
diagonal:  Solving for rho, Initial residual = 0, Final residual = 0, No Iterations 0
DICPBiCGStab:  Solving for theta, Initial residual = 0.000952988, Final residual = 4.59413e-20, No Iterations 1
DICPCG:  Solving for Exner, Initial residual = 1.08604e-05, Final residual = 7.7053e-09, No Iterations 8
DICPCG:  Solving for Exner, Initial residual = 2.0053e-08, Final residual = 6.43961e-11, No Iterations 7
diagonal:  Solving for rho, Initial residual = 0, Final residual = 0, No Iterations 0
DICPBiCGStab:  Solving for theta, Initial residual = 1.38168e-05, Final residual = 5.06727e-22, No Iterations 1
DICPCG:  Solving for Exner, Initial residual = 3.21345e-06, Final residual = 2.02947e-09, No Iterations 8
DICPCG:  Solving for Exner, Initial residual = 2.06381e-09, Final residual = 8.36866e-11, No Iterations 4
diagonal:  Solving for rho, Initial residual = 0, Final residual = 0, No Iterations 0
DICPBiCGStab:  Solving for theta, Initial residual = 8.13631e-08, Final residual = 5.24519e-22, No Iterations 1
time step continuity errors : sum local = 2.10399e-10, global = -4.75859e-13, cumulative = 1.04295e-09
Maximum rho difference fraction = 1.2994e-08
Heat error = 1.70377e-15
ExecutionTime = 8.91 s  ClockTime = 9 s

Time = 74

Courant Number mean: 0.00142752 max: 0.0228112 max Ndt = 0.014365
diagonal:  Solving for rho, Initial residual = 0, Final residual = 0, No Iterations 0
DICPBiCGStab:  Solving for theta, Initial residual = 0.000980071, Final residual = 4.01223e-20, No Iterations 1
DICPCG:  Solving for Exner, Initial residual = 1.01172e-05, Final residual = 7.67356e-09, No Iterations 8
DICPCG:  Solving for Exner, Initial residual = 2.04561e-08, Final residual = 6.74806e-11, No Iterations 7
diagonal:  Solving for rho, Initial residual = 0, Final residual = 0, No Iterations 0
DICPBiCGStab:  Solving for theta, Initial residual = 1.39732e-05, Final residual = 5.60907e-22, No Iterations 1
DICPCG:  Solving for Exner, Initial residual = 3.1104e-06, Final residual = 1.83163e-09, No Iterations 8
DICPCG:  Solving for Exner, Initial residual = 1.86195e-09, Final residual = 7.77364e-11, No Iterations 4
diagonal:  Solving for rho, Initial residual = 0, Final residual = 0, No Iterations 0
DICPBiCGStab:  Solving for theta, Initial residual = 8.379e-08, Final residual = 4.19577e-22, No Iterations 1
time step continuity errors : sum local = 2.07009e-10, global = -6.92957e-13, cumulative = 1.04226e-09
Maximum rho difference fraction = 9.69053e-09
Heat error = 1.3106e-15
ExecutionTime = 9.16 s  ClockTime = 9 s

Time = 76

Courant Number mean: 0.00146239 max: 0.0234461 max Ndt = 0.014374
diagonal:  Solving for rho, Initial residual = 0, Final residual = 0, No Iterations 0
DICPBiCGStab:  Solving for theta, Initial residual = 0.00100755, Final residual = 4.58157e-20, No Iterations 1
DICPCG:  Solving for Exner, Initial residual = 9.45997e-06, Final residual = 6.74518e-09, No Iterations 8
DICPCG:  Solving for Exner, Initial residual = 1.97475e-08, Final residual = 6.85389e-11, No Iterations 7
diagonal:  Solving for rho, Initial residual = 0, Final residual = 0, No Iterations 0
DICPBiCGStab:  Solving for theta, Initial residual = 1.40872e-05, Final residual = 6.40074e-22, No Iterations 1
DICPCG:  Solving for Exner, Initial residual = 3.23199e-06, Final residual = 1.86797e-09, No Iterations 8
DICPCG:  Solving for Exner, Initial residual = 1.90424e-09, Final residual = 7.93609e-11, No Iterations 4
diagonal:  Solving for rho, Initial residual = 0, Final residual = 0, No Iterations 0
DICPBiCGStab:  Solving for theta, Initial residual = 5.88051e-08, Final residual = 2.67801e-24, No Iterations 1
time step continuity errors : sum local = 2.04043e-10, global = -2.69129e-12, cumulative = 1.03957e-09
Maximum rho difference fraction = 5.44236e-09
Heat error = -2.62119e-16
ExecutionTime = 9.41 s  ClockTime = 9 s

Time = 78

Courant Number mean: 0.00150113 max: 0.0240919 max Ndt = 0.014383
diagonal:  Solving for rho, Initial residual = 0, Final residual = 0, No Iterations 0
DICPBiCGStab:  Solving for theta, Initial residual = 0.00103529, Final residual = 2.13433e-19, No Iterations 1
DICPCG:  Solving for Exner, Initial residual = 9.38358e-06, Final residual = 6.26347e-09, No Iterations 8
DICPCG:  Solving for Exner, Initial residual = 1.93673e-08, Final residual = 6.90367e-11, No Iterations 7
diagonal:  Solving for rho, Initial residual = 0, Final residual = 0, No Iterations 0
DICPBiCGStab:  Solving for theta, Initial residual = 1.41542e-05, Final residual = 5.07609e-22, No Iterations 1
DICPCG:  Solving for Exner, Initial residual = 3.21598e-06, Final residual = 1.96414e-09, No Iterations 8
DICPCG:  Solving for Exner, Initial residual = 2.02996e-09, Final residual = 7.69843e-11, No Iterations 4
diagonal:  Solving for rho, Initial residual = 0, Final residual = 0, No Iterations 0
DICPBiCGStab:  Solving for theta, Initial residual = 5.11173e-08, Final residual = 2.32839e-24, No Iterations 1
time step continuity errors : sum local = 2.04599e-10, global = -5.62116e-12, cumulative = 1.03395e-09
Maximum rho difference fraction = 1.9042e-09
Heat error = 3.66967e-15
ExecutionTime = 9.65 s  ClockTime = 10 s

Time = 80

Courant Number mean: 0.0015498 max: 0.0247439 max Ndt = 0.0143918
diagonal:  Solving for rho, Initial residual = 0, Final residual = 0, No Iterations 0
DICPBiCGStab:  Solving for theta, Initial residual = 0.00106316, Final residual = 4.70347e-20, No Iterations 1
DICPCG:  Solving for Exner, Initial residual = 9.87635e-06, Final residual = 6.9873e-09, No Iterations 8
DICPCG:  Solving for Exner, Initial residual = 2.03162e-08, Final residual = 7.00562e-11, No Iterations 7
diagonal:  Solving for rho, Initial residual = 0, Final residual = 0, No Iterations 0
DICPBiCGStab:  Solving for theta, Initial residual = 1.41773e-05, Final residual = 4.79295e-22, No Iterations 1
DICPCG:  Solving for Exner, Initial residual = 2.88518e-06, Final residual = 1.8431e-09, No Iterations 8
DICPCG:  Solving for Exner, Initial residual = 1.91834e-09, Final residual = 6.84593e-11, No Iterations 4
diagonal:  Solving for rho, Initial residual = 0, Final residual = 0, No Iterations 0
DICPBiCGStab:  Solving for theta, Initial residual = 8.51437e-08, Final residual = 4.34849e-22, No Iterations 1
time step continuity errors : sum local = 2.06674e-10, global = -8.76061e-12, cumulative = 1.02519e-09
Maximum rho difference fraction = 3.71859e-09
Heat error = -1.3106e-15
ExecutionTime = 9.9 s  ClockTime = 10 s

Time = 82

Courant Number mean: 0.00160106 max: 0.025395 max Ndt = 0.0144006
diagonal:  Solving for rho, Initial residual = 0, Final residual = 0, No Iterations 0
DICPBiCGStab:  Solving for theta, Initial residual = 0.00109101, Final residual = 4.4025e-20, No Iterations 1
DICPCG:  Solving for Exner, Initial residual = 9.83548e-06, Final residual = 7.1197e-09, No Iterations 8
DICPCG:  Solving for Exner, Initial residual = 2.07089e-08, Final residual = 7.10791e-11, No Iterations 7
diagonal:  Solving for rho, Initial residual = 0, Final residual = 0, No Iterations 0
DICPBiCGStab:  Solving for theta, Initial residual = 1.41522e-05, Final residual = 7.77882e-22, No Iterations 1
DICPCG:  Solving for Exner, Initial residual = 2.78481e-06, Final residual = 1.57773e-09, No Iterations 8
DICPCG:  Solving for Exner, Initial residual = 1.636e-09, Final residual = 5.50026e-11, No Iterations 4
diagonal:  Solving for rho, Initial residual = 0, Final residual = 0, No Iterations 0
DICPBiCGStab:  Solving for theta, Initial residual = 1.07253e-07, Final residual = 4.64615e-22, No Iterations 1
time step continuity errors : sum local = 2.08207e-10, global = -1.21366e-11, cumulative = 1.01305e-09
Maximum rho difference fraction = 7.1972e-09
Heat error = 5.63556e-15
ExecutionTime = 10.15 s  ClockTime = 10 s

Time = 84

Courant Number mean: 0.00164902 max: 0.0260392 max Ndt = 0.0144091
diagonal:  Solving for rho, Initial residual = 0, Final residual = 0, No Iterations 0
DICPBiCGStab:  Solving for theta, Initial residual = 0.0011187, Final residual = 4.62348e-20, No Iterations 1
DICPCG:  Solving for Exner, Initial residual = 9.10421e-06, Final residual = 6.54657e-09, No Iterations 8
DICPCG:  Solving for Exner, Initial residual = 2.02071e-08, Final residual = 7.10134e-11, No Iterations 7
diagonal:  Solving for rho, Initial residual = 0, Final residual = 0, No Iterations 0
DICPBiCGStab:  Solving for theta, Initial residual = 1.4102e-05, Final residual = 2.22257e-21, No Iterations 1
DICPCG:  Solving for Exner, Initial residual = 2.85261e-06, Final residual = 1.57972e-09, No Iterations 8
DICPCG:  Solving for Exner, Initial residual = 1.63042e-09, Final residual = 5.91161e-11, No Iterations 4
diagonal:  Solving for rho, Initial residual = 0, Final residual = 0, No Iterations 0
DICPBiCGStab:  Solving for theta, Initial residual = 9.86291e-08, Final residual = 5.15922e-22, No Iterations 1
time step continuity errors : sum local = 2.08476e-10, global = -1.61787e-11, cumulative = 9.9687e-10
Maximum rho difference fraction = 7.68949e-09
Heat error = 1.3106e-15
ExecutionTime = 10.4 s  ClockTime = 10 s

Time = 86

Courant Number mean: 0.00169625 max: 0.0266733 max Ndt = 0.0144174
diagonal:  Solving for rho, Initial residual = 0, Final residual = 0, No Iterations 0
DICPBiCGStab:  Solving for theta, Initial residual = 0.00114616, Final residual = 4.35758e-20, No Iterations 1
DICPCG:  Solving for Exner, Initial residual = 9.58672e-06, Final residual = 6.55324e-09, No Iterations 8
DICPCG:  Solving for Exner, Initial residual = 2.0529e-08, Final residual = 7.20444e-11, No Iterations 7
diagonal:  Solving for rho, Initial residual = 0, Final residual = 0, No Iterations 0
DICPBiCGStab:  Solving for theta, Initial residual = 1.40656e-05, Final residual = 5.69482e-22, No Iterations 1
DICPCG:  Solving for Exner, Initial residual = 3.03092e-06, Final residual = 1.73856e-09, No Iterations 8
DICPCG:  Solving for Exner, Initial residual = 1.79349e-09, Final residual = 7.09793e-11, No Iterations 4
diagonal:  Solving for rho, Initial residual = 0, Final residual = 0, No Iterations 0
DICPBiCGStab:  Solving for theta, Initial residual = 6.83086e-08, Final residual = 5.07887e-22, No Iterations 1
time step continuity errors : sum local = 2.09805e-10, global = -2.06418e-11, cumulative = 9.76228e-10
Maximum rho difference fraction = 5.27927e-09
Heat error = 2.49013e-15
ExecutionTime = 10.64 s  ClockTime = 11 s

Time = 88

Courant Number mean: 0.00174481 max: 0.0272983 max Ndt = 0.0144254
diagonal:  Solving for rho, Initial residual = 0, Final residual = 0, No Iterations 0
DICPBiCGStab:  Solving for theta, Initial residual = 0.00117338, Final residual = 5.54786e-20, No Iterations 1
DICPCG:  Solving for Exner, Initial residual = 1.04552e-05, Final residual = 7.27654e-09, No Iterations 8
DICPCG:  Solving for Exner, Initial residual = 2.18004e-08, Final residual = 7.65423e-11, No Iterations 7
diagonal:  Solving for rho, Initial residual = 0, Final residual = 0, No Iterations 0
DICPBiCGStab:  Solving for theta, Initial residual = 1.40651e-05, Final residual = 6.8355e-22, No Iterations 1
DICPCG:  Solving for Exner, Initial residual = 2.8195e-06, Final residual = 1.55304e-09, No Iterations 8
DICPCG:  Solving for Exner, Initial residual = 1.60738e-09, Final residual = 7.03029e-11, No Iterations 4
diagonal:  Solving for rho, Initial residual = 0, Final residual = 0, No Iterations 0
DICPBiCGStab:  Solving for theta, Initial residual = 6.7675e-08, Final residual = 5.41646e-22, No Iterations 1
time step continuity errors : sum local = 2.12464e-10, global = -2.42425e-11, cumulative = 9.51986e-10
Maximum rho difference fraction = 2.24146e-09
Heat error = -4.71814e-15
ExecutionTime = 10.89 s  ClockTime = 11 s

Time = 90

Courant Number mean: 0.0017944 max: 0.0279185 max Ndt = 0.0144391
diagonal:  Solving for rho, Initial residual = 0, Final residual = 0, No Iterations 0
DICPBiCGStab:  Solving for theta, Initial residual = 0.00120039, Final residual = 5.07214e-20, No Iterations 1
DICPCG:  Solving for Exner, Initial residual = 1.06548e-05, Final residual = 7.53413e-09, No Iterations 8
DICPCG:  Solving for Exner, Initial residual = 2.26306e-08, Final residual = 7.97587e-11, No Iterations 7
diagonal:  Solving for rho, Initial residual = 0, Final residual = 0, No Iterations 0
DICPBiCGStab:  Solving for theta, Initial residual = 1.40924e-05, Final residual = 2.85779e-21, No Iterations 1
DICPCG:  Solving for Exner, Initial residual = 2.3086e-06, Final residual = 1.42806e-09, No Iterations 8
DICPCG:  Solving for Exner, Initial residual = 1.4669e-09, Final residual = 6.40299e-11, No Iterations 4
diagonal:  Solving for rho, Initial residual = 0, Final residual = 0, No Iterations 0
DICPBiCGStab:  Solving for theta, Initial residual = 7.85661e-08, Final residual = 4.79651e-22, No Iterations 1
time step continuity errors : sum local = 2.16049e-10, global = -2.6601e-11, cumulative = 9.25385e-10
Maximum rho difference fraction = 2.54464e-09
Heat error = 9.17417e-16
ExecutionTime = 11.14 s  ClockTime = 11 s

Time = 92

Courant Number mean: 0.00183659 max: 0.0285397 max Ndt = 0.0144652
diagonal:  Solving for rho, Initial residual = 0, Final residual = 0, No Iterations 0
DICPBiCGStab:  Solving for theta, Initial residual = 0.00122725, Final residual = 5.86973e-20, No Iterations 1
DICPCG:  Solving for Exner, Initial residual = 9.54374e-06, Final residual = 6.83551e-09, No Iterations 8
DICPCG:  Solving for Exner, Initial residual = 2.25612e-08, Final residual = 7.95976e-11, No Iterations 7
diagonal:  Solving for rho, Initial residual = 0, Final residual = 0, No Iterations 0
DICPBiCGStab:  Solving for theta, Initial residual = 1.41244e-05, Final residual = 5.61318e-22, No Iterations 1
DICPCG:  Solving for Exner, Initial residual = 2.29595e-06, Final residual = 1.49909e-09, No Iterations 8
DICPCG:  Solving for Exner, Initial residual = 1.52132e-09, Final residual = 6.31115e-11, No Iterations 4
diagonal:  Solving for rho, Initial residual = 0, Final residual = 0, No Iterations 0
DICPBiCGStab:  Solving for theta, Initial residual = 7.04401e-08, Final residual = 3.36454e-22, No Iterations 1
time step continuity errors : sum local = 2.16928e-10, global = -2.74185e-11, cumulative = 8.97966e-10
Maximum rho difference fraction = 2.31528e-09
Heat error = 9.17417e-16
ExecutionTime = 11.39 s  ClockTime = 11 s

Time = 94

Courant Number mean: 0.00186619 max: 0.0291661 max Ndt = 0.0144917
diagonal:  Solving for rho, Initial residual = 0, Final residual = 0, No Iterations 0
DICPBiCGStab:  Solving for theta, Initial residual = 0.00125403, Final residual = 5.84232e-20, No Iterations 1
DICPCG:  Solving for Exner, Initial residual = 8.01934e-06, Final residual = 5.90438e-09, No Iterations 8
DICPCG:  Solving for Exner, Initial residual = 2.22023e-08, Final residual = 7.9341e-11, No Iterations 7
diagonal:  Solving for rho, Initial residual = 0, Final residual = 0, No Iterations 0
DICPBiCGStab:  Solving for theta, Initial residual = 1.41584e-05, Final residual = 5.22328e-22, No Iterations 1
DICPCG:  Solving for Exner, Initial residual = 2.75631e-06, Final residual = 1.70117e-09, No Iterations 8
DICPCG:  Solving for Exner, Initial residual = 1.73737e-09, Final residual = 6.97872e-11, No Iterations 4
diagonal:  Solving for rho, Initial residual = 0, Final residual = 0, No Iterations 0
DICPBiCGStab:  Solving for theta, Initial residual = 5.23155e-08, Final residual = 2.36117e-24, No Iterations 1
time step continuity errors : sum local = 2.1589e-10, global = -2.52535e-11, cumulative = 8.72713e-10
Maximum rho difference fraction = 1.9168e-09
Heat error = -1.17954e-15
ExecutionTime = 11.64 s  ClockTime = 12 s

Time = 96

Courant Number mean: 0.00189002 max: 0.0297981 max Ndt = 0.0145184
diagonal:  Solving for rho, Initial residual = 0, Final residual = 0, No Iterations 0
DICPBiCGStab:  Solving for theta, Initial residual = 0.00128078, Final residual = 5.6076e-20, No Iterations 1
DICPCG:  Solving for Exner, Initial residual = 8.18198e-06, Final residual = 4.97224e-09, No Iterations 8
DICPCG:  Solving for Exner, Initial residual = 2.16627e-08, Final residual = 7.82855e-11, No Iterations 7
diagonal:  Solving for rho, Initial residual = 0, Final residual = 0, No Iterations 0
DICPBiCGStab:  Solving for theta, Initial residual = 1.41931e-05, Final residual = 7.18515e-22, No Iterations 1
DICPCG:  Solving for Exner, Initial residual = 2.97094e-06, Final residual = 1.76241e-09, No Iterations 8
DICPCG:  Solving for Exner, Initial residual = 1.80526e-09, Final residual = 7.29742e-11, No Iterations 4
diagonal:  Solving for rho, Initial residual = 0, Final residual = 0, No Iterations 0
DICPBiCGStab:  Solving for theta, Initial residual = 5.59185e-08, Final residual = 2.65496e-24, No Iterations 1
time step continuity errors : sum local = 2.13285e-10, global = -2.07738e-11, cumulative = 8.51939e-10
Maximum rho difference fraction = 1.97919e-09
Heat error = 1.3106e-16
ExecutionTime = 11.89 s  ClockTime = 12 s

Time = 98

Courant Number mean: 0.00190801 max: 0.0304327 max Ndt = 0.0145454
diagonal:  Solving for rho, Initial residual = 0, Final residual = 0, No Iterations 0
DICPBiCGStab:  Solving for theta, Initial residual = 0.00130753, Final residual = 5.38922e-20, No Iterations 1
DICPCG:  Solving for Exner, Initial residual = 9.2353e-06, Final residual = 4.81291e-09, No Iterations 8
DICPCG:  Solving for Exner, Initial residual = 2.17551e-08, Final residual = 7.51864e-11, No Iterations 7
diagonal:  Solving for rho, Initial residual = 0, Final residual = 0, No Iterations 0
DICPBiCGStab:  Solving for theta, Initial residual = 1.42509e-05, Final residual = 6.53335e-22, No Iterations 1
DICPCG:  Solving for Exner, Initial residual = 2.66717e-06, Final residual = 1.68458e-09, No Iterations 8
DICPCG:  Solving for Exner, Initial residual = 1.72263e-09, Final residual = 6.71542e-11, No Iterations 4
diagonal:  Solving for rho, Initial residual = 0, Final residual = 0, No Iterations 0
DICPBiCGStab:  Solving for theta, Initial residual = 7.72427e-08, Final residual = 4.45545e-22, No Iterations 1
time step continuity errors : sum local = 2.11393e-10, global = -1.53834e-11, cumulative = 8.36555e-10
Maximum rho difference fraction = 1.99982e-09
Heat error = 3.80073e-15
ExecutionTime = 12.14 s  ClockTime = 12 s

Time = 100

Courant Number mean: 0.00192556 max: 0.0310653 max Ndt = 0.0145726
diagonal:  Solving for rho, Initial residual = 0, Final residual = 0, No Iterations 0
DICPBiCGStab:  Solving for theta, Initial residual = 0.00133426, Final residual = 5.39133e-20, No Iterations 1
DICPCG:  Solving for Exner, Initial residual = 9.39963e-06, Final residual = 5.30042e-09, No Iterations 8
DICPCG:  Solving for Exner, Initial residual = 2.23326e-08, Final residual = 7.16311e-11, No Iterations 7
diagonal:  Solving for rho, Initial residual = 0, Final residual = 0, No Iterations 0
DICPBiCGStab:  Solving for theta, Initial residual = 1.4313e-05, Final residual = 6.53717e-22, No Iterations 1
DICPCG:  Solving for Exner, Initial residual = 2.24762e-06, Final residual = 1.62592e-09, No Iterations 8
DICPCG:  Solving for Exner, Initial residual = 1.6625e-09, Final residual = 6.42109e-11, No Iterations 4
diagonal:  Solving for rho, Initial residual = 0, Final residual = 0, No Iterations 0
DICPBiCGStab:  Solving for theta, Initial residual = 7.94402e-08, Final residual = 3.87871e-22, No Iterations 1
time step continuity errors : sum local = 2.12161e-10, global = -1.00659e-11, cumulative = 8.2649e-10
Maximum rho difference fraction = 3.27786e-09
Heat error = 1.17954e-15
ExecutionTime = 12.39 s  ClockTime = 12 s

Time = 102

Courant Number mean: 0.00194676 max: 0.0316928 max Ndt = 0.0146
diagonal:  Solving for rho, Initial residual = 0, Final residual = 0, No Iterations 0
DICPBiCGStab:  Solving for theta, Initial residual = 0.00136095, Final residual = 6.38127e-20, No Iterations 1
DICPCG:  Solving for Exner, Initial residual = 8.7819e-06, Final residual = 5.25813e-09, No Iterations 8
DICPCG:  Solving for Exner, Initial residual = 2.24873e-08, Final residual = 7.37893e-11, No Iterations 7
diagonal:  Solving for rho, Initial residual = 0, Final residual = 0, No Iterations 0
DICPBiCGStab:  Solving for theta, Initial residual = 1.43649e-05, Final residual = 6.7737e-22, No Iterations 1
DICPCG:  Solving for Exner, Initial residual = 2.61472e-06, Final residual = 1.55904e-09, No Iterations 8
DICPCG:  Solving for Exner, Initial residual = 1.612e-09, Final residual = 6.46117e-11, No Iterations 4
diagonal:  Solving for rho, Initial residual = 0, Final residual = 0, No Iterations 0
DICPBiCGStab:  Solving for theta, Initial residual = 6.73344e-08, Final residual = 4.40377e-22, No Iterations 1
time step continuity errors : sum local = 2.13907e-10, global = -5.4701e-12, cumulative = 8.21019e-10
Maximum rho difference fraction = 4.67745e-09
Heat error = -5.24238e-16
ExecutionTime = 12.64 s  ClockTime = 13 s

Time = 104

Courant Number mean: 0.00197716 max: 0.032315 max Ndt = 0.0146275
diagonal:  Solving for rho, Initial residual = 0, Final residual = 0, No Iterations 0
DICPBiCGStab:  Solving for theta, Initial residual = 0.00138754, Final residual = 6.15809e-20, No Iterations 1
DICPCG:  Solving for Exner, Initial residual = 8.75977e-06, Final residual = 5.72674e-09, No Iterations 8
DICPCG:  Solving for Exner, Initial residual = 2.32586e-08, Final residual = 7.65556e-11, No Iterations 7
diagonal:  Solving for rho, Initial residual = 0, Final residual = 0, No Iterations 0
DICPBiCGStab:  Solving for theta, Initial residual = 1.43837e-05, Final residual = 5.08836e-22, No Iterations 1
DICPCG:  Solving for Exner, Initial residual = 2.94284e-06, Final residual = 1.49764e-09, No Iterations 8
DICPCG:  Solving for Exner, Initial residual = 1.54015e-09, Final residual = 6.55717e-11, No Iterations 4
diagonal:  Solving for rho, Initial residual = 0, Final residual = 0, No Iterations 0
DICPBiCGStab:  Solving for theta, Initial residual = 6.70355e-08, Final residual = 4.16953e-22, No Iterations 1
time step continuity errors : sum local = 2.17247e-10, global = -2.8322e-12, cumulative = 8.18187e-10
Maximum rho difference fraction = 9.51361e-09
Heat error = -5.24238e-16
ExecutionTime = 12.88 s  ClockTime = 13 s

Time = 106

Courant Number mean: 0.00201901 max: 0.0329339 max Ndt = 0.0146551
diagonal:  Solving for rho, Initial residual = 0, Final residual = 0, No Iterations 0
DICPBiCGStab:  Solving for theta, Initial residual = 0.00141387, Final residual = 3.00122e-19, No Iterations 1
DICPCG:  Solving for Exner, Initial residual = 9.95693e-06, Final residual = 6.52142e-09, No Iterations 8
DICPCG:  Solving for Exner, Initial residual = 2.42003e-08, Final residual = 7.94815e-11, No Iterations 7
diagonal:  Solving for rho, Initial residual = 0, Final residual = 0, No Iterations 0
DICPBiCGStab:  Solving for theta, Initial residual = 1.43753e-05, Final residual = 5.48351e-22, No Iterations 1
DICPCG:  Solving for Exner, Initial residual = 2.7079e-06, Final residual = 1.60703e-09, No Iterations 8
DICPCG:  Solving for Exner, Initial residual = 1.63427e-09, Final residual = 6.88092e-11, No Iterations 4
diagonal:  Solving for rho, Initial residual = 0, Final residual = 0, No Iterations 0
DICPBiCGStab:  Solving for theta, Initial residual = 6.51611e-08, Final residual = 5.3492e-22, No Iterations 1
time step continuity errors : sum local = 2.21916e-10, global = -3.77083e-12, cumulative = 8.14416e-10
Maximum rho difference fraction = 1.36898e-08
Heat error = 5.5045e-15
ExecutionTime = 13.16 s  ClockTime = 13 s

Time = 108

Courant Number mean: 0.0020694 max: 0.033552 max Ndt = 0.0146828
diagonal:  Solving for rho, Initial residual = 0, Final residual = 0, No Iterations 0
DICPBiCGStab:  Solving for theta, Initial residual = 0.00143989, Final residual = 6.24521e-19, No Iterations 1
DICPCG:  Solving for Exner, Initial residual = 1.07013e-05, Final residual = 6.96015e-09, No Iterations 8
DICPCG:  Solving for Exner, Initial residual = 2.49265e-08, Final residual = 8.57755e-11, No Iterations 7
diagonal:  Solving for rho, Initial residual = 0, Final residual = 0, No Iterations 0
DICPBiCGStab:  Solving for theta, Initial residual = 1.43481e-05, Final residual = 2.79234e-21, No Iterations 1
DICPCG:  Solving for Exner, Initial residual = 2.36607e-06, Final residual = 1.47504e-09, No Iterations 8
DICPCG:  Solving for Exner, Initial residual = 1.52173e-09, Final residual = 6.10496e-11, No Iterations 4
diagonal:  Solving for rho, Initial residual = 0, Final residual = 0, No Iterations 0
DICPBiCGStab:  Solving for theta, Initial residual = 5.74749e-08, Final residual = 6.70082e-22, No Iterations 1
time step continuity errors : sum local = 2.25151e-10, global = -6.92835e-12, cumulative = 8.07488e-10
Maximum rho difference fraction = 1.35672e-08
Heat error = 1.57271e-15
ExecutionTime = 13.41 s  ClockTime = 13 s

Time = 110

Courant Number mean: 0.00211836 max: 0.0341697 max Ndt = 0.0147106
diagonal:  Solving for rho, Initial residual = 0, Final residual = 0, No Iterations 0
DICPBiCGStab:  Solving for theta, Initial residual = 0.00146556, Final residual = 7.51228e-20, No Iterations 1
DICPCG:  Solving for Exner, Initial residual = 1.01758e-05, Final residual = 7.1615e-09, No Iterations 8
DICPCG:  Solving for Exner, Initial residual = 2.56887e-08, Final residual = 9.29551e-11, No Iterations 7
diagonal:  Solving for rho, Initial residual = 0, Final residual = 0, No Iterations 0
DICPBiCGStab:  Solving for theta, Initial residual = 1.43091e-05, Final residual = 6.76486e-22, No Iterations 1
DICPCG:  Solving for Exner, Initial residual = 2.28657e-06, Final residual = 1.59181e-09, No Iterations 8
DICPCG:  Solving for Exner, Initial residual = 1.6279e-09, Final residual = 6.93011e-11, No Iterations 4
diagonal:  Solving for rho, Initial residual = 0, Final residual = 0, No Iterations 0
DICPBiCGStab:  Solving for theta, Initial residual = 5.2975e-08, Final residual = 2.35175e-22, No Iterations 1
time step continuity errors : sum local = 2.25134e-10, global = -1.11536e-11, cumulative = 7.96334e-10
Maximum rho difference fraction = 8.25598e-09
Heat error = 4.06284e-15
ExecutionTime = 13.67 s  ClockTime = 14 s

Time = 112

Courant Number mean: 0.00215862 max: 0.034785 max Ndt = 0.0147383
diagonal:  Solving for rho, Initial residual = 0, Final residual = 0, No Iterations 0
DICPBiCGStab:  Solving for theta, Initial residual = 0.00149091, Final residual = 3.29791e-19, No Iterations 1
DICPCG:  Solving for Exner, Initial residual = 9.96537e-06, Final residual = 6.91696e-09, No Iterations 8
DICPCG:  Solving for Exner, Initial residual = 2.60513e-08, Final residual = 9.58405e-11, No Iterations 7
diagonal:  Solving for rho, Initial residual = 0, Final residual = 0, No Iterations 0
DICPBiCGStab:  Solving for theta, Initial residual = 1.42682e-05, Final residual = 6.27003e-22, No Iterations 1
DICPCG:  Solving for Exner, Initial residual = 2.70864e-06, Final residual = 1.92972e-09, No Iterations 8
DICPCG:  Solving for Exner, Initial residual = 1.93639e-09, Final residual = 8.64859e-11, No Iterations 4
diagonal:  Solving for rho, Initial residual = 0, Final residual = 0, No Iterations 0
DICPBiCGStab:  Solving for theta, Initial residual = 5.83432e-08, Final residual = 4.33166e-22, No Iterations 1
time step continuity errors : sum local = 2.25609e-10, global = -1.6609e-11, cumulative = 7.79725e-10
Maximum rho difference fraction = 2.77202e-09
Heat error = 4.06284e-15
ExecutionTime = 13.92 s  ClockTime = 14 s

Time = 114

Courant Number mean: 0.00218765 max: 0.0353951 max Ndt = 0.0147661
diagonal:  Solving for rho, Initial residual = 0, Final residual = 0, No Iterations 0
DICPBiCGStab:  Solving for theta, Initial residual = 0.00151609, Final residual = 5.70823e-20, No Iterations 1
DICPCG:  Solving for Exner, Initial residual = 9.79198e-06, Final residual = 7.48545e-09, No Iterations 8
DICPCG:  Solving for Exner, Initial residual = 2.72254e-08, Final residual = 4.20334e-11, No Iterations 8
diagonal:  Solving for rho, Initial residual = 0, Final residual = 0, No Iterations 0
DICPBiCGStab:  Solving for theta, Initial residual = 1.42298e-05, Final residual = 6.30938e-22, No Iterations 1
DICPCG:  Solving for Exner, Initial residual = 2.83617e-06, Final residual = 2.03822e-09, No Iterations 8
DICPCG:  Solving for Exner, Initial residual = 2.05945e-09, Final residual = 9.33406e-11, No Iterations 4
diagonal:  Solving for rho, Initial residual = 0, Final residual = 0, No Iterations 0
DICPBiCGStab:  Solving for theta, Initial residual = 6.47466e-08, Final residual = 5.81072e-22, No Iterations 1
time step continuity errors : sum local = 2.29028e-10, global = -2.24077e-11, cumulative = 7.57318e-10
Maximum rho difference fraction = 5.11916e-09
Heat error = -1.3106e-16
ExecutionTime = 14.16 s  ClockTime = 14 s

Time = 116

Courant Number mean: 0.00221827 max: 0.0359975 max Ndt = 0.0147937
diagonal:  Solving for rho, Initial residual = 0, Final residual = 0, No Iterations 0
DICPBiCGStab:  Solving for theta, Initial residual = 0.00154154, Final residual = 6.3581e-20, No Iterations 1
DICPCG:  Solving for Exner, Initial residual = 1.03744e-05, Final residual = 7.92194e-09, No Iterations 8
DICPCG:  Solving for Exner, Initial residual = 2.80354e-08, Final residual = 4.13791e-11, No Iterations 8
diagonal:  Solving for rho, Initial residual = 0, Final residual = 0, No Iterations 0
DICPBiCGStab:  Solving for theta, Initial residual = 1.42097e-05, Final residual = 7.41028e-22, No Iterations 1
DICPCG:  Solving for Exner, Initial residual = 2.75572e-06, Final residual = 2.03068e-09, No Iterations 8
DICPCG:  Solving for Exner, Initial residual = 2.0897e-09, Final residual = 9.54861e-11, No Iterations 4
diagonal:  Solving for rho, Initial residual = 0, Final residual = 0, No Iterations 0
DICPBiCGStab:  Solving for theta, Initial residual = 6.94424e-08, Final residual = 3.70038e-22, No Iterations 1
time step continuity errors : sum local = 2.32382e-10, global = -2.81449e-11, cumulative = 7.29173e-10
Maximum rho difference fraction = 8.74858e-09
Heat error = -1.44165e-15
ExecutionTime = 14.42 s  ClockTime = 14 s

Time = 118

Courant Number mean: 0.00225202 max: 0.0365924 max Ndt = 0.0148213
diagonal:  Solving for rho, Initial residual = 0, Final residual = 0, No Iterations 0
DICPBiCGStab:  Solving for theta, Initial residual = 0.00156667, Final residual = 7.14145e-20, No Iterations 1
DICPCG:  Solving for Exner, Initial residual = 1.06881e-05, Final residual = 8.27224e-09, No Iterations 8
DICPCG:  Solving for Exner, Initial residual = 2.86286e-08, Final residual = 4.17285e-11, No Iterations 8
diagonal:  Solving for rho, Initial residual = 0, Final residual = 0, No Iterations 0
DICPBiCGStab:  Solving for theta, Initial residual = 1.42357e-05, Final residual = 5.32001e-22, No Iterations 1
DICPCG:  Solving for Exner, Initial residual = 2.79741e-06, Final residual = 2.2095e-09, No Iterations 8
DICPCG:  Solving for Exner, Initial residual = 2.26378e-09, Final residual = 3.91366e-11, No Iterations 5
diagonal:  Solving for rho, Initial residual = 0, Final residual = 0, No Iterations 0
DICPBiCGStab:  Solving for theta, Initial residual = 7.70733e-08, Final residual = 8.66085e-23, No Iterations 1
time step continuity errors : sum local = 2.38249e-10, global = -2.90441e-11, cumulative = 7.00129e-10
Maximum rho difference fraction = 8.915e-09
Heat error = -6.55298e-16
ExecutionTime = 14.67 s  ClockTime = 15 s

Time = 120

Courant Number mean: 0.0022902 max: 0.0371821 max Ndt = 0.0148486
diagonal:  Solving for rho, Initial residual = 0, Final residual = 0, No Iterations 0
[...]
DICPBiCGStab:  Solving for theta, Initial residual = 3.27836e-06, Final residual = 1.2456e-22, No Iterations 1
time step continuity errors : sum local = 1.06109e-09, global = 3.25298e-10, cumulative = 4.62112e-08
Maximum rho difference fraction = 2.12351e-08
Heat error = 1.3106e-15
ExecutionTime = 120.88 s  ClockTime = 121 s

Time = 972

Courant Number mean: 0.0222393 max: 0.149642 max Ndt = 0.0186373
diagonal:  Solving for rho, Initial residual = 0, Final residual = 0, No Iterations 0
DICPBiCGStab:  Solving for theta, Initial residual = 0.00594008, Final residual = 2.60074e-18, No Iterations 1
DICPCG:  Solving for Exner, Initial residual = 9.77136e-06, Final residual = 8.11585e-09, No Iterations 8
DICPCG:  Solving for Exner, Initial residual = 2.32067e-07, Final residual = 1.59097e-10, No Iterations 8
diagonal:  Solving for rho, Initial residual = 0, Final residual = 0, No Iterations 0
DICPBiCGStab:  Solving for theta, Initial residual = 0.000121702, Final residual = 4.56073e-21, No Iterations 1
DICPCG:  Solving for Exner, Initial residual = 1.23003e-06, Final residual = 9.67767e-10, No Iterations 8
DICPCG:  Solving for Exner, Initial residual = 3.42483e-09, Final residual = 8.78775e-11, No Iterations 4
diagonal:  Solving for rho, Initial residual = 0, Final residual = 0, No Iterations 0
DICPBiCGStab:  Solving for theta, Initial residual = 3.26236e-06, Final residual = 1.30201e-22, No Iterations 1
time step continuity errors : sum local = 1.05911e-09, global = 3.1168e-10, cumulative = 4.65229e-08
Maximum rho difference fraction = 2.12506e-08
Heat error = -1.04848e-15
ExecutionTime = 121.13 s  ClockTime = 121 s

Time = 974

Courant Number mean: 0.0222818 max: 0.14939 max Ndt = 0.0186483
diagonal:  Solving for rho, Initial residual = 0, Final residual = 0, No Iterations 0
DICPBiCGStab:  Solving for theta, Initial residual = 0.0059347, Final residual = 1.30504e-18, No Iterations 1
DICPCG:  Solving for Exner, Initial residual = 9.73275e-06, Final residual = 7.8937e-09, No Iterations 8
DICPCG:  Solving for Exner, Initial residual = 2.31003e-07, Final residual = 1.58321e-10, No Iterations 8
diagonal:  Solving for rho, Initial residual = 0, Final residual = 0, No Iterations 0
DICPBiCGStab:  Solving for theta, Initial residual = 0.000121586, Final residual = 4.30479e-21, No Iterations 1
DICPCG:  Solving for Exner, Initial residual = 1.03289e-06, Final residual = 1.01206e-09, No Iterations 8
DICPCG:  Solving for Exner, Initial residual = 3.45977e-09, Final residual = 9.26576e-11, No Iterations 4
diagonal:  Solving for rho, Initial residual = 0, Final residual = 0, No Iterations 0
DICPBiCGStab:  Solving for theta, Initial residual = 3.25007e-06, Final residual = 6.80306e-22, No Iterations 1
time step continuity errors : sum local = 1.05372e-09, global = 2.98926e-10, cumulative = 4.68218e-08
Maximum rho difference fraction = 2.12338e-08
Heat error = 1.04848e-15
ExecutionTime = 121.38 s  ClockTime = 121 s

Time = 976

Courant Number mean: 0.0223236 max: 0.149101 max Ndt = 0.0186562
diagonal:  Solving for rho, Initial residual = 0, Final residual = 0, No Iterations 0
DICPBiCGStab:  Solving for theta, Initial residual = 0.0059244, Final residual = 2.35567e-19, No Iterations 1
DICPCG:  Solving for Exner, Initial residual = 8.92389e-06, Final residual = 7.41342e-09, No Iterations 8
DICPCG:  Solving for Exner, Initial residual = 2.29439e-07, Final residual = 1.54786e-10, No Iterations 8
diagonal:  Solving for rho, Initial residual = 0, Final residual = 0, No Iterations 0
DICPBiCGStab:  Solving for theta, Initial residual = 0.000121414, Final residual = 3.97243e-21, No Iterations 1
DICPCG:  Solving for Exner, Initial residual = 1.23347e-06, Final residual = 1.19241e-09, No Iterations 8
DICPCG:  Solving for Exner, Initial residual = 3.597e-09, Final residual = 9.53038e-11, No Iterations 4
diagonal:  Solving for rho, Initial residual = 0, Final residual = 0, No Iterations 0
DICPBiCGStab:  Solving for theta, Initial residual = 3.23721e-06, Final residual = 1.35279e-22, No Iterations 1
time step continuity errors : sum local = 1.05099e-09, global = 2.88531e-10, cumulative = 4.71103e-08
Maximum rho difference fraction = 2.11711e-08
Heat error = -5.24238e-15
ExecutionTime = 121.63 s  ClockTime = 122 s

Time = 978

Courant Number mean: 0.0223652 max: 0.149041 max Ndt = 0.0186611
diagonal:  Solving for rho, Initial residual = 0, Final residual = 0, No Iterations 0
DICPBiCGStab:  Solving for theta, Initial residual = 0.0059192, Final residual = 1.98168e-19, No Iterations 1
DICPCG:  Solving for Exner, Initial residual = 7.4438e-06, Final residual = 6.597e-09, No Iterations 8
DICPCG:  Solving for Exner, Initial residual = 2.27885e-07, Final residual = 1.49688e-10, No Iterations 8
diagonal:  Solving for rho, Initial residual = 0, Final residual = 0, No Iterations 0
DICPBiCGStab:  Solving for theta, Initial residual = 0.000121328, Final residual = 4.51502e-21, No Iterations 1
DICPCG:  Solving for Exner, Initial residual = 1.61817e-06, Final residual = 1.4227e-09, No Iterations 8
DICPCG:  Solving for Exner, Initial residual = 3.79634e-09, Final residual = 4.9782e-11, No Iterations 5
diagonal:  Solving for rho, Initial residual = 0, Final residual = 0, No Iterations 0
DICPBiCGStab:  Solving for theta, Initial residual = 3.23243e-06, Final residual = 1.28145e-22, No Iterations 1
time step continuity errors : sum local = 1.04873e-09, global = 2.87224e-10, cumulative = 4.73975e-08
Maximum rho difference fraction = 2.13145e-08
Heat error = -7.86357e-16
ExecutionTime = 121.88 s  ClockTime = 122 s

Time = 980

Courant Number mean: 0.0224074 max: 0.14909 max Ndt = 0.0186631
diagonal:  Solving for rho, Initial residual = 0, Final residual = 0, No Iterations 0
DICPBiCGStab:  Solving for theta, Initial residual = 0.00591344, Final residual = 2.25347e-19, No Iterations 1
DICPCG:  Solving for Exner, Initial residual = 5.72973e-06, Final residual = 5.56273e-09, No Iterations 8
DICPCG:  Solving for Exner, Initial residual = 2.26443e-07, Final residual = 1.46447e-10, No Iterations 8
diagonal:  Solving for rho, Initial residual = 0, Final residual = 0, No Iterations 0
DICPBiCGStab:  Solving for theta, Initial residual = 0.000121075, Final residual = 4.17959e-21, No Iterations 1
DICPCG:  Solving for Exner, Initial residual = 1.9288e-06, Final residual = 1.60038e-09, No Iterations 8
DICPCG:  Solving for Exner, Initial residual = 3.94977e-09, Final residual = 5.20726e-11, No Iterations 5
diagonal:  Solving for rho, Initial residual = 0, Final residual = 0, No Iterations 0
DICPBiCGStab:  Solving for theta, Initial residual = 3.24251e-06, Final residual = 9.57481e-23, No Iterations 1
time step continuity errors : sum local = 1.04831e-09, global = 2.87081e-10, cumulative = 4.76846e-08
Maximum rho difference fraction = 2.14902e-08
Heat error = 1.3106e-15
ExecutionTime = 122.12 s  ClockTime = 122 s

Time = 982

Courant Number mean: 0.0224507 max: 0.149288 max Ndt = 0.0186619
diagonal:  Solving for rho, Initial residual = 0, Final residual = 0, No Iterations 0
DICPBiCGStab:  Solving for theta, Initial residual = 0.00590546, Final residual = 2.32175e-19, No Iterations 1
DICPCG:  Solving for Exner, Initial residual = 5.23209e-06, Final residual = 4.80432e-09, No Iterations 8
DICPCG:  Solving for Exner, Initial residual = 2.25672e-07, Final residual = 1.50181e-10, No Iterations 8
diagonal:  Solving for rho, Initial residual = 0, Final residual = 0, No Iterations 0
DICPBiCGStab:  Solving for theta, Initial residual = 0.000120655, Final residual = 4.19246e-21, No Iterations 1
DICPCG:  Solving for Exner, Initial residual = 2.09396e-06, Final residual = 1.67686e-09, No Iterations 8
DICPCG:  Solving for Exner, Initial residual = 4.0138e-09, Final residual = 5.24556e-11, No Iterations 5
diagonal:  Solving for rho, Initial residual = 0, Final residual = 0, No Iterations 0
DICPBiCGStab:  Solving for theta, Initial residual = 3.25211e-06, Final residual = 1.22116e-22, No Iterations 1
time step continuity errors : sum local = 1.04921e-09, global = 2.86947e-10, cumulative = 4.79716e-08
Maximum rho difference fraction = 2.1695e-08
Heat error = 1.3106e-15
ExecutionTime = 122.37 s  ClockTime = 122 s

Time = 984

Courant Number mean: 0.0224954 max: 0.149455 max Ndt = 0.0186578
diagonal:  Solving for rho, Initial residual = 0, Final residual = 0, No Iterations 0
DICPBiCGStab:  Solving for theta, Initial residual = 0.00590178, Final residual = 2.36776e-19, No Iterations 1
DICPCG:  Solving for Exner, Initial residual = 6.29681e-06, Final residual = 4.32426e-09, No Iterations 8
DICPCG:  Solving for Exner, Initial residual = 2.24933e-07, Final residual = 1.42547e-10, No Iterations 8
diagonal:  Solving for rho, Initial residual = 0, Final residual = 0, No Iterations 0
DICPBiCGStab:  Solving for theta, Initial residual = 0.000120352, Final residual = 4.30053e-21, No Iterations 1
DICPCG:  Solving for Exner, Initial residual = 2.11447e-06, Final residual = 1.80791e-09, No Iterations 8
DICPCG:  Solving for Exner, Initial residual = 4.13366e-09, Final residual = 5.3315e-11, No Iterations 5
diagonal:  Solving for rho, Initial residual = 0, Final residual = 0, No Iterations 0
DICPBiCGStab:  Solving for theta, Initial residual = 3.25118e-06, Final residual = 1.43804e-22, No Iterations 1
time step continuity errors : sum local = 1.05094e-09, global = 2.86333e-10, cumulative = 4.82579e-08
Maximum rho difference fraction = 2.19161e-08
Heat error = -5.24238e-16
ExecutionTime = 122.63 s  ClockTime = 123 s

Time = 986

Courant Number mean: 0.0225419 max: 0.149591 max Ndt = 0.0186506
diagonal:  Solving for rho, Initial residual = 0, Final residual = 0, No Iterations 0
DICPBiCGStab:  Solving for theta, Initial residual = 0.00589951, Final residual = 1.23595e-18, No Iterations 1
DICPCG:  Solving for Exner, Initial residual = 7.51977e-06, Final residual = 4.83212e-09, No Iterations 8
DICPCG:  Solving for Exner, Initial residual = 2.24738e-07, Final residual = 1.37104e-10, No Iterations 8
diagonal:  Solving for rho, Initial residual = 0, Final residual = 0, No Iterations 0
DICPBiCGStab:  Solving for theta, Initial residual = 0.000119992, Final residual = 4.4905e-21, No Iterations 1
DICPCG:  Solving for Exner, Initial residual = 1.97665e-06, Final residual = 1.86954e-09, No Iterations 8
DICPCG:  Solving for Exner, Initial residual = 4.16452e-09, Final residual = 5.11689e-11, No Iterations 5
diagonal:  Solving for rho, Initial residual = 0, Final residual = 0, No Iterations 0
DICPBiCGStab:  Solving for theta, Initial residual = 3.23971e-06, Final residual = 5.07637e-22, No Iterations 1
time step continuity errors : sum local = 1.05303e-09, global = 2.84756e-10, cumulative = 4.85427e-08
Maximum rho difference fraction = 2.21271e-08
Heat error = -2.88331e-15
ExecutionTime = 122.87 s  ClockTime = 123 s

Time = 988

Courant Number mean: 0.0225904 max: 0.149698 max Ndt = 0.0186403
diagonal:  Solving for rho, Initial residual = 0, Final residual = 0, No Iterations 0
DICPBiCGStab:  Solving for theta, Initial residual = 0.00589425, Final residual = 1.95707e-19, No Iterations 1
DICPCG:  Solving for Exner, Initial residual = 8.43962e-06, Final residual = 5.70891e-09, No Iterations 8
DICPCG:  Solving for Exner, Initial residual = 2.25109e-07, Final residual = 1.35845e-10, No Iterations 8
diagonal:  Solving for rho, Initial residual = 0, Final residual = 0, No Iterations 0
DICPBiCGStab:  Solving for theta, Initial residual = 0.00011961, Final residual = 4.51469e-21, No Iterations 1
DICPCG:  Solving for Exner, Initial residual = 1.69224e-06, Final residual = 6.65634e-10, No Iterations 9
DICPCG:  Solving for Exner, Initial residual = 3.14291e-09, Final residual = 6.61337e-11, No Iterations 4
diagonal:  Solving for rho, Initial residual = 0, Final residual = 0, No Iterations 0
DICPBiCGStab:  Solving for theta, Initial residual = 3.21938e-06, Final residual = 1.33707e-22, No Iterations 1
time step continuity errors : sum local = 1.05019e-09, global = 2.75357e-10, cumulative = 4.8818e-08
Maximum rho difference fraction = 2.19684e-08
Heat error = -4.1939e-15
ExecutionTime = 123.12 s  ClockTime = 123 s

Time = 990

Courant Number mean: 0.0226402 max: 0.149778 max Ndt = 0.0186268
diagonal:  Solving for rho, Initial residual = 0, Final residual = 0, No Iterations 0
DICPBiCGStab:  Solving for theta, Initial residual = 0.00588927, Final residual = 1.21944e-18, No Iterations 1
DICPCG:  Solving for Exner, Initial residual = 8.84164e-06, Final residual = 6.59621e-09, No Iterations 8
DICPCG:  Solving for Exner, Initial residual = 2.25783e-07, Final residual = 1.35089e-10, No Iterations 8
diagonal:  Solving for rho, Initial residual = 0, Final residual = 0, No Iterations 0
DICPBiCGStab:  Solving for theta, Initial residual = 0.000119345, Final residual = 4.45296e-21, No Iterations 1
DICPCG:  Solving for Exner, Initial residual = 1.42516e-06, Final residual = 6.63664e-10, No Iterations 9
DICPCG:  Solving for Exner, Initial residual = 3.10697e-09, Final residual = 6.8898e-11, No Iterations 4
diagonal:  Solving for rho, Initial residual = 0, Final residual = 0, No Iterations 0
DICPBiCGStab:  Solving for theta, Initial residual = 3.20545e-06, Final residual = 1.39971e-22, No Iterations 1
time step continuity errors : sum local = 1.04398e-09, global = 2.6568e-10, cumulative = 4.90837e-08
Maximum rho difference fraction = 2.18121e-08
Heat error = -3.93179e-16
ExecutionTime = 123.37 s  ClockTime = 123 s

Time = 992

Courant Number mean: 0.0226905 max: 0.149836 max Ndt = 0.0186103
diagonal:  Solving for rho, Initial residual = 0, Final residual = 0, No Iterations 0
DICPBiCGStab:  Solving for theta, Initial residual = 0.0058874, Final residual = 2.36302e-19, No Iterations 1
DICPCG:  Solving for Exner, Initial residual = 8.95438e-06, Final residual = 7.07193e-09, No Iterations 8
DICPCG:  Solving for Exner, Initial residual = 2.26114e-07, Final residual = 1.34498e-10, No Iterations 8
diagonal:  Solving for rho, Initial residual = 0, Final residual = 0, No Iterations 0
DICPBiCGStab:  Solving for theta, Initial residual = 0.000119462, Final residual = 3.98692e-21, No Iterations 1
DICPCG:  Solving for Exner, Initial residual = 1.39978e-06, Final residual = 6.39053e-10, No Iterations 9
DICPCG:  Solving for Exner, Initial residual = 3.06051e-09, Final residual = 7.19707e-11, No Iterations 4
diagonal:  Solving for rho, Initial residual = 0, Final residual = 0, No Iterations 0
DICPBiCGStab:  Solving for theta, Initial residual = 3.19303e-06, Final residual = 1.37843e-22, No Iterations 1
time step continuity errors : sum local = 1.03815e-09, global = 2.57978e-10, cumulative = 4.93417e-08
Maximum rho difference fraction = 2.16548e-08
Heat error = 4.32496e-15
ExecutionTime = 123.63 s  ClockTime = 124 s

Time = 994

Courant Number mean: 0.0227408 max: 0.149874 max Ndt = 0.0185905
diagonal:  Solving for rho, Initial residual = 0, Final residual = 0, No Iterations 0
DICPBiCGStab:  Solving for theta, Initial residual = 0.00588708, Final residual = 2.04232e-19, No Iterations 1
DICPCG:  Solving for Exner, Initial residual = 8.53147e-06, Final residual = 7.1454e-09, No Iterations 8
DICPCG:  Solving for Exner, Initial residual = 2.2563e-07, Final residual = 1.33361e-10, No Iterations 8
diagonal:  Solving for rho, Initial residual = 0, Final residual = 0, No Iterations 0
DICPBiCGStab:  Solving for theta, Initial residual = 0.000119895, Final residual = 3.52506e-21, No Iterations 1
DICPCG:  Solving for Exner, Initial residual = 1.57408e-06, Final residual = 1.51753e-09, No Iterations 8
DICPCG:  Solving for Exner, Initial residual = 3.84237e-09, Final residual = 4.79679e-11, No Iterations 5
diagonal:  Solving for rho, Initial residual = 0, Final residual = 0, No Iterations 0
DICPBiCGStab:  Solving for theta, Initial residual = 3.18065e-06, Final residual = 1.18185e-22, No Iterations 1
time step continuity errors : sum local = 1.03602e-09, global = 2.56522e-10, cumulative = 4.95982e-08
Maximum rho difference fraction = 2.18309e-08
Heat error = -3.93179e-15
ExecutionTime = 123.87 s  ClockTime = 124 s

Time = 996

Courant Number mean: 0.0227904 max: 0.149896 max Ndt = 0.0185675
diagonal:  Solving for rho, Initial residual = 0, Final residual = 0, No Iterations 0
DICPBiCGStab:  Solving for theta, Initial residual = 0.00588551, Final residual = 2.27025e-19, No Iterations 1
DICPCG:  Solving for Exner, Initial residual = 8.12249e-06, Final residual = 7.01114e-09, No Iterations 8
DICPCG:  Solving for Exner, Initial residual = 2.24546e-07, Final residual = 1.31855e-10, No Iterations 8
diagonal:  Solving for rho, Initial residual = 0, Final residual = 0, No Iterations 0
DICPBiCGStab:  Solving for theta, Initial residual = 0.000120147, Final residual = 4.48296e-21, No Iterations 1
DICPCG:  Solving for Exner, Initial residual = 1.79316e-06, Final residual = 1.44318e-09, No Iterations 8
DICPCG:  Solving for Exner, Initial residual = 3.81982e-09, Final residual = 4.64152e-11, No Iterations 5
diagonal:  Solving for rho, Initial residual = 0, Final residual = 0, No Iterations 0
DICPBiCGStab:  Solving for theta, Initial residual = 3.16854e-06, Final residual = 1.27554e-22, No Iterations 1
time step continuity errors : sum local = 1.03434e-09, global = 2.56074e-10, cumulative = 4.98543e-08
Maximum rho difference fraction = 2.20032e-08
Heat error = 1.57271e-15
ExecutionTime = 124.12 s  ClockTime = 124 s

Time = 998

Courant Number mean: 0.0228391 max: 0.149904 max Ndt = 0.0185412
diagonal:  Solving for rho, Initial residual = 0, Final residual = 0, No Iterations 0
DICPBiCGStab:  Solving for theta, Initial residual = 0.00588623, Final residual = 2.40845e-19, No Iterations 1
DICPCG:  Solving for Exner, Initial residual = 7.86267e-06, Final residual = 6.87429e-09, No Iterations 8
DICPCG:  Solving for Exner, Initial residual = 2.23354e-07, Final residual = 1.31496e-10, No Iterations 8
diagonal:  Solving for rho, Initial residual = 0, Final residual = 0, No Iterations 0
DICPBiCGStab:  Solving for theta, Initial residual = 0.000120333, Final residual = 4.58657e-21, No Iterations 1
DICPCG:  Solving for Exner, Initial residual = 1.88646e-06, Final residual = 1.32817e-09, No Iterations 8
DICPCG:  Solving for Exner, Initial residual = 3.71122e-09, Final residual = 9.19659e-11, No Iterations 4
diagonal:  Solving for rho, Initial residual = 0, Final residual = 0, No Iterations 0
DICPBiCGStab:  Solving for theta, Initial residual = 3.16382e-06, Final residual = 6.80662e-22, No Iterations 1
time step continuity errors : sum local = 1.04462e-09, global = 2.69105e-10, cumulative = 5.01234e-08
Maximum rho difference fraction = 2.17968e-08
Heat error = 6.55298e-16
ExecutionTime = 124.37 s  ClockTime = 124 s

Time = 1000

Courant Number mean: 0.0228874 max: 0.149897 max Ndt = 0.0185117
diagonal:  Solving for rho, Initial residual = 0, Final residual = 0, No Iterations 0
DICPBiCGStab:  Solving for theta, Initial residual = 0.00588907, Final residual = 2.05229e-19, No Iterations 1
DICPCG:  Solving for Exner, Initial residual = 7.8318e-06, Final residual = 6.85666e-09, No Iterations 8
DICPCG:  Solving for Exner, Initial residual = 2.22297e-07, Final residual = 1.32503e-10, No Iterations 8
diagonal:  Solving for rho, Initial residual = 0, Final residual = 0, No Iterations 0
DICPBiCGStab:  Solving for theta, Initial residual = 0.000120311, Final residual = 4.55149e-21, No Iterations 1
DICPCG:  Solving for Exner, Initial residual = 1.77302e-06, Final residual = 1.46458e-09, No Iterations 8
DICPCG:  Solving for Exner, Initial residual = 3.8547e-09, Final residual = 4.93074e-11, No Iterations 5
diagonal:  Solving for rho, Initial residual = 0, Final residual = 0, No Iterations 0
DICPBiCGStab:  Solving for theta, Initial residual = 3.16127e-06, Final residual = 6.67899e-22, No Iterations 1
time step continuity errors : sum local = 1.04446e-09, global = 2.73066e-10, cumulative = 5.03964e-08
Maximum rho difference fraction = 2.19987e-08
Heat error = 9.17417e-16
ExecutionTime = 124.61 s  ClockTime = 125 s

End

