/*---------------------------------------------------------------------------*\
| =========                 |                                                 |
| \\      /  F ield         | OpenFOAM: The Open Source CFD Toolbox           |
|  \\    /   O peration     | Version:  dev                                   |
|   \\  /    A nd           | Web:      www.OpenFOAM.org                      |
|    \\/     M anipulation  |                                                 |
\*---------------------------------------------------------------------------*/
Build  : dev-c1b380c8677a
Exec   : exnerFoam
Date   : May 12 2018
Time   : 20:29:39
Host   : "daniel-XPS-15-9560"
PID    : 26024
I/O    : uncollated
Case   : /home/daniel/OpenFOAM/daniel-dev/run/danCases/exnerFoam/standard
nProcs : 1
sigFpe : Enabling floating point exception trapping (FOAM_SIGFPE).
fileModificationChecking : Monitoring run-time modified files using timeStampMaster (fileModificationSkew 10)
allowSystemOperations : Allowing user-supplied system call operations

// * * * * * * * * * * * * * * * * * * * * * * * * * * * * * * * * * * * * * //
Create time

Create mesh for time = 0


Reading environmentalProperties
Reading thermophysical properties

Cp = 1005 speedSound = speedSound [0 1 -1 0 0 0 0] 347.745 kappa = kappa [0 0 0 0 0 0 0] 0.286267 R = 287.698 RR = 8314.47 Cv = Cv [0 2 -2 -1 0 0 0] 717.302
Maximum acousitic Courant number = ((max(deltaCoeffs)*deltaT)*speedSound) [0 0 0 0 0 0 0] 13.9098
Making the boundary faces orthogonal
Reading field Uf

Reading field Exner

Reading field theta

Maximum sponge value = 0
Creating field rho

Calculating face flux field phi

Initialising total energy file energy.dat

KE dimensions = [1 -1 -2 0 0 0 0]
internalEnergy dimensions = [1 -1 -2 0 0 0 0]
potentialEnergy dimensions = [1 -1 -2 0 0 0 0]
Vtot = sum(V) [0 3 0 0 0 0 0] 4e+11
KEInitTot = (domainIntegrate(KE)|sum(V)) [1 -1 -2 0 0 0 0] 0
internalInitTot = (domainIntegrate(internalEnergy)|sum(V)) [1 -1 -2 0 0 0 0] 84513.4
potentialInitTot = (domainIntegrate(potentialEnergy)|sum(V)) [1 -1 -2 0 0 0 0] 31359.8

Starting time loop

Time = 2

Courant Number mean: 0 max: 0 max Ndt = 0.0142514
diagonal:  Solving for rho, Initial residual = 0, Final residual = 0, No Iterations 0
diagonal:  Solving for theta, Initial residual = 0, Final residual = 0, No Iterations 0
DICPCG:  Solving for Exner, Initial residual = 4.63612e-06, Final residual = 3.2432e-09, No Iterations 18
DICPCG:  Solving for Exner, Initial residual = 3.39476e-09, Final residual = 6.75254e-11, No Iterations 10
diagonal:  Solving for rho, Initial residual = 0, Final residual = 0, No Iterations 0
diagonal:  Solving for theta, Initial residual = 0, Final residual = 0, No Iterations 0
DICPCG:  Solving for Exner, Initial residual = 2.16627e-06, Final residual = 1.53099e-09, No Iterations 16
DICPCG:  Solving for Exner, Initial residual = 1.55586e-09, Final residual = 9.81081e-11, No Iterations 7
diagonal:  Solving for rho, Initial residual = 0, Final residual = 0, No Iterations 0
diagonal:  Solving for theta, Initial residual = 0, Final residual = 0, No Iterations 0
time step continuity errors : sum local = 4.33237e-11, global = 1.2878e-11, cumulative = 1.2878e-11
Maximum rho difference fraction = 8.07538e-10
Heat error = 1.03536e-14
ExecutionTime = 1.32 s  ClockTime = 1 s

Time = 4

Courant Number mean: 2.72321e-05 max: 0.00230705 max Ndt = 0.014252
diagonal:  Solving for rho, Initial residual = 0, Final residual = 0, No Iterations 0
diagonal:  Solving for theta, Initial residual = 0, Final residual = 0, No Iterations 0
DICPCG:  Solving for Exner, Initial residual = 6.36705e-06, Final residual = 4.30672e-09, No Iterations 17
DICPCG:  Solving for Exner, Initial residual = 4.60509e-09, Final residual = 9.23411e-11, No Iterations 10
diagonal:  Solving for rho, Initial residual = 0, Final residual = 0, No Iterations 0
diagonal:  Solving for theta, Initial residual = 0, Final residual = 0, No Iterations 0
DICPCG:  Solving for Exner, Initial residual = 1.40031e-06, Final residual = 1.25113e-09, No Iterations 16
DICPCG:  Solving for Exner, Initial residual = 1.25718e-09, Final residual = 8.12257e-11, No Iterations 7
diagonal:  Solving for rho, Initial residual = 0, Final residual = 0, No Iterations 0
diagonal:  Solving for theta, Initial residual = 0, Final residual = 0, No Iterations 0
time step continuity errors : sum local = 5.14895e-11, global = 2.1929e-11, cumulative = 3.48069e-11
Maximum rho difference fraction = 3.74672e-09
Heat error = -1.16642e-14
ExecutionTime = 2.29 s  ClockTime = 2 s

Time = 6

Courant Number mean: 6.20082e-05 max: 0.00394445 max Ndt = 0.0142535
diagonal:  Solving for rho, Initial residual = 0, Final residual = 0, No Iterations 0
diagonal:  Solving for theta, Initial residual = 0, Final residual = 0, No Iterations 0
DICPCG:  Solving for Exner, Initial residual = 6.66254e-06, Final residual = 5.34538e-09, No Iterations 16
DICPCG:  Solving for Exner, Initial residual = 5.56284e-09, Final residual = 6.94913e-11, No Iterations 11
diagonal:  Solving for rho, Initial residual = 0, Final residual = 0, No Iterations 0
diagonal:  Solving for theta, Initial residual = 0, Final residual = 0, No Iterations 0
DICPCG:  Solving for Exner, Initial residual = 2.10743e-06, Final residual = 1.90008e-09, No Iterations 15
DICPCG:  Solving for Exner, Initial residual = 2.00275e-09, Final residual = 8.77186e-11, No Iterations 8
diagonal:  Solving for rho, Initial residual = 0, Final residual = 0, No Iterations 0
diagonal:  Solving for theta, Initial residual = 0, Final residual = 0, No Iterations 0
time step continuity errors : sum local = 7.04111e-11, global = 3.29577e-11, cumulative = 6.77646e-11
Maximum rho difference fraction = 7.8736e-09
Heat error = -1.02225e-14
ExecutionTime = 3.24 s  ClockTime = 3 s

Time = 8

Courant Number mean: 0.000108165 max: 0.00497376 max Ndt = 0.0142554
diagonal:  Solving for rho, Initial residual = 0, Final residual = 0, No Iterations 0
diagonal:  Solving for theta, Initial residual = 0, Final residual = 0, No Iterations 0
DICPCG:  Solving for Exner, Initial residual = 7.63713e-06, Final residual = 5.80185e-09, No Iterations 16
DICPCG:  Solving for Exner, Initial residual = 6.29351e-09, Final residual = 8.20875e-11, No Iterations 11
diagonal:  Solving for rho, Initial residual = 0, Final residual = 0, No Iterations 0
diagonal:  Solving for theta, Initial residual = 0, Final residual = 0, No Iterations 0
DICPCG:  Solving for Exner, Initial residual = 2.76221e-06, Final residual = 2.10692e-09, No Iterations 15
DICPCG:  Solving for Exner, Initial residual = 2.15886e-09, Final residual = 9.87186e-11, No Iterations 8
diagonal:  Solving for rho, Initial residual = 0, Final residual = 0, No Iterations 0
diagonal:  Solving for theta, Initial residual = 0, Final residual = 0, No Iterations 0
time step continuity errors : sum local = 9.36661e-11, global = 4.4351e-11, cumulative = 1.12116e-10
Maximum rho difference fraction = 5.59324e-09
Heat error = -3.53857e-15
ExecutionTime = 4.2 s  ClockTime = 4 s

Time = 10

Courant Number mean: 0.00016669 max: 0.00581214 max Ndt = 0.0142573
diagonal:  Solving for rho, Initial residual = 0, Final residual = 0, No Iterations 0
diagonal:  Solving for theta, Initial residual = 0, Final residual = 0, No Iterations 0
DICPCG:  Solving for Exner, Initial residual = 9.32879e-06, Final residual = 7.21487e-09, No Iterations 16
DICPCG:  Solving for Exner, Initial residual = 7.75166e-09, Final residual = 9.50565e-11, No Iterations 11
diagonal:  Solving for rho, Initial residual = 0, Final residual = 0, No Iterations 0
diagonal:  Solving for theta, Initial residual = 0, Final residual = 0, No Iterations 0
DICPCG:  Solving for Exner, Initial residual = 2.94096e-06, Final residual = 2.37716e-09, No Iterations 15
DICPCG:  Solving for Exner, Initial residual = 2.46204e-09, Final residual = 7.13795e-11, No Iterations 9
diagonal:  Solving for rho, Initial residual = 0, Final residual = 0, No Iterations 0
diagonal:  Solving for theta, Initial residual = 0, Final residual = 0, No Iterations 0
time step continuity errors : sum local = 1.02083e-10, global = 5.27182e-11, cumulative = 1.64834e-10
Maximum rho difference fraction = 8.87919e-09
Heat error = -5.89762e-15
ExecutionTime = 5.16 s  ClockTime = 5 s

Time = 12

Courant Number mean: 0.000235188 max: 0.0067969 max Ndt = 0.0142593
diagonal:  Solving for rho, Initial residual = 0, Final residual = 0, No Iterations 0
diagonal:  Solving for theta, Initial residual = 0, Final residual = 0, No Iterations 0
DICPCG:  Solving for Exner, Initial residual = 1.03289e-05, Final residual = 7.81457e-09, No Iterations 16
DICPCG:  Solving for Exner, Initial residual = 9.06122e-09, Final residual = 8.10194e-11, No Iterations 12
diagonal:  Solving for rho, Initial residual = 0, Final residual = 0, No Iterations 0
diagonal:  Solving for theta, Initial residual = 0, Final residual = 0, No Iterations 0
DICPCG:  Solving for Exner, Initial residual = 3.04432e-06, Final residual = 2.23081e-09, No Iterations 15
DICPCG:  Solving for Exner, Initial residual = 2.40108e-09, Final residual = 6.61875e-11, No Iterations 9
diagonal:  Solving for rho, Initial residual = 0, Final residual = 0, No Iterations 0
diagonal:  Solving for theta, Initial residual = 0, Final residual = 0, No Iterations 0
time step continuity errors : sum local = 1.12998e-10, global = 6.06398e-11, cumulative = 2.25474e-10
Maximum rho difference fraction = 1.21303e-08
Heat error = -1.41543e-14
ExecutionTime = 6.13 s  ClockTime = 6 s

Time = 14

Courant Number mean: 0.000309756 max: 0.00802723 max Ndt = 0.0142618
diagonal:  Solving for rho, Initial residual = 0, Final residual = 0, No Iterations 0
diagonal:  Solving for theta, Initial residual = 0, Final residual = 0, No Iterations 0
DICPCG:  Solving for Exner, Initial residual = 1.09862e-05, Final residual = 8.22764e-09, No Iterations 16
DICPCG:  Solving for Exner, Initial residual = 9.94935e-09, Final residual = 7.98837e-11, No Iterations 12
diagonal:  Solving for rho, Initial residual = 0, Final residual = 0, No Iterations 0
diagonal:  Solving for theta, Initial residual = 0, Final residual = 0, No Iterations 0
DICPCG:  Solving for Exner, Initial residual = 3.04955e-06, Final residual = 2.18283e-09, No Iterations 15
DICPCG:  Solving for Exner, Initial residual = 2.2281e-09, Final residual = 6.41654e-11, No Iterations 9
diagonal:  Solving for rho, Initial residual = 0, Final residual = 0, No Iterations 0
diagonal:  Solving for theta, Initial residual = 0, Final residual = 0, No Iterations 0
time step continuity errors : sum local = 1.22511e-10, global = 6.30561e-11, cumulative = 2.8853e-10
Maximum rho difference fraction = 1.33413e-08
Heat error = -6.94609e-15
ExecutionTime = 7.11 s  ClockTime = 7 s

Time = 16

Courant Number mean: 0.000386561 max: 0.00938229 max Ndt = 0.0142649
diagonal:  Solving for rho, Initial residual = 0, Final residual = 0, No Iterations 0
diagonal:  Solving for theta, Initial residual = 0, Final residual = 0, No Iterations 0
DICPCG:  Solving for Exner, Initial residual = 1.08251e-05, Final residual = 7.8827e-09, No Iterations 16
DICPCG:  Solving for Exner, Initial residual = 9.7848e-09, Final residual = 8.07813e-11, No Iterations 12
diagonal:  Solving for rho, Initial residual = 0, Final residual = 0, No Iterations 0
diagonal:  Solving for theta, Initial residual = 0, Final residual = 0, No Iterations 0
DICPCG:  Solving for Exner, Initial residual = 3.20862e-06, Final residual = 2.46086e-09, No Iterations 15
DICPCG:  Solving for Exner, Initial residual = 2.51671e-09, Final residual = 7.37947e-11, No Iterations 9
diagonal:  Solving for rho, Initial residual = 0, Final residual = 0, No Iterations 0
diagonal:  Solving for theta, Initial residual = 0, Final residual = 0, No Iterations 0
time step continuity errors : sum local = 1.26951e-10, global = 6.08215e-11, cumulative = 3.49351e-10
Maximum rho difference fraction = 1.16103e-08
Heat error = -2.22799e-15
ExecutionTime = 8.49 s  ClockTime = 8 s

Time = 18

Courant Number mean: 0.00046352 max: 0.010698 max Ndt = 0.0142687
diagonal:  Solving for rho, Initial residual = 0, Final residual = 0, No Iterations 0
diagonal:  Solving for theta, Initial residual = 0, Final residual = 0, No Iterations 0
DICPCG:  Solving for Exner, Initial residual = 1.00702e-05, Final residual = 7.05616e-09, No Iterations 16
DICPCG:  Solving for Exner, Initial residual = 9.11656e-09, Final residual = 7.92382e-11, No Iterations 12
diagonal:  Solving for rho, Initial residual = 0, Final residual = 0, No Iterations 0
diagonal:  Solving for theta, Initial residual = 0, Final residual = 0, No Iterations 0
DICPCG:  Solving for Exner, Initial residual = 3.61578e-06, Final residual = 3.48535e-09, No Iterations 15
DICPCG:  Solving for Exner, Initial residual = 3.54009e-09, Final residual = 8.40926e-11, No Iterations 9
diagonal:  Solving for rho, Initial residual = 0, Final residual = 0, No Iterations 0
diagonal:  Solving for theta, Initial residual = 0, Final residual = 0, No Iterations 0
time step continuity errors : sum local = 1.24059e-10, global = 5.58473e-11, cumulative = 4.05198e-10
Maximum rho difference fraction = 1.17339e-08
Heat error = -1.70376e-15
ExecutionTime = 10.09 s  ClockTime = 10 s

Time = 20

Courant Number mean: 0.00054123 max: 0.0119457 max Ndt = 0.014273
diagonal:  Solving for rho, Initial residual = 0, Final residual = 0, No Iterations 0
diagonal:  Solving for theta, Initial residual = 0, Final residual = 0, No Iterations 0
DICPCG:  Solving for Exner, Initial residual = 1.12359e-05, Final residual = 7.66984e-09, No Iterations 16
DICPCG:  Solving for Exner, Initial residual = 9.89533e-09, Final residual = 7.59586e-11, No Iterations 12
diagonal:  Solving for rho, Initial residual = 0, Final residual = 0, No Iterations 0
diagonal:  Solving for theta, Initial residual = 0, Final residual = 0, No Iterations 0
DICPCG:  Solving for Exner, Initial residual = 3.76232e-06, Final residual = 3.68478e-09, No Iterations 15
DICPCG:  Solving for Exner, Initial residual = 3.71596e-09, Final residual = 6.47344e-11, No Iterations 10
diagonal:  Solving for rho, Initial residual = 0, Final residual = 0, No Iterations 0
diagonal:  Solving for theta, Initial residual = 0, Final residual = 0, No Iterations 0
time step continuity errors : sum local = 1.28673e-10, global = 5.17971e-11, cumulative = 4.56995e-10
Maximum rho difference fraction = 1.15196e-08
Heat error = 2.22799e-15
ExecutionTime = 11.72 s  ClockTime = 12 s

Time = 22

Courant Number mean: 0.000624328 max: 0.0131695 max Ndt = 0.0142777
diagonal:  Solving for rho, Initial residual = 0, Final residual = 0, No Iterations 0
diagonal:  Solving for theta, Initial residual = 0, Final residual = 0, No Iterations 0
DICPCG:  Solving for Exner, Initial residual = 1.24955e-05, Final residual = 8.35188e-09, No Iterations 16
DICPCG:  Solving for Exner, Initial residual = 1.06531e-08, Final residual = 9.63711e-11, No Iterations 12
diagonal:  Solving for rho, Initial residual = 0, Final residual = 0, No Iterations 0
diagonal:  Solving for theta, Initial residual = 0, Final residual = 0, No Iterations 0
DICPCG:  Solving for Exner, Initial residual = 3.53551e-06, Final residual = 3.48528e-09, No Iterations 15
DICPCG:  Solving for Exner, Initial residual = 3.56691e-09, Final residual = 5.99817e-11, No Iterations 10
diagonal:  Solving for rho, Initial residual = 0, Final residual = 0, No Iterations 0
diagonal:  Solving for theta, Initial residual = 0, Final residual = 0, No Iterations 0
time step continuity errors : sum local = 1.32989e-10, global = 4.80956e-11, cumulative = 5.05091e-10
Maximum rho difference fraction = 1.10673e-08
Heat error = -1.04847e-15
ExecutionTime = 13.33 s  ClockTime = 13 s

Time = 24

Courant Number mean: 0.000721868 max: 0.0143926 max Ndt = 0.0142828
diagonal:  Solving for rho, Initial residual = 0, Final residual = 0, No Iterations 0
diagonal:  Solving for theta, Initial residual = 0, Final residual = 0, No Iterations 0
DICPCG:  Solving for Exner, Initial residual = 1.28433e-05, Final residual = 1.22027e-08, No Iterations 15
DICPCG:  Solving for Exner, Initial residual = 1.53131e-08, Final residual = 8.00103e-11, No Iterations 13
diagonal:  Solving for rho, Initial residual = 0, Final residual = 0, No Iterations 0
diagonal:  Solving for theta, Initial residual = 0, Final residual = 0, No Iterations 0
DICPCG:  Solving for Exner, Initial residual = 3.7428e-06, Final residual = 2.39582e-09, No Iterations 16
DICPCG:  Solving for Exner, Initial residual = 2.42031e-09, Final residual = 7.17759e-11, No Iterations 9
diagonal:  Solving for rho, Initial residual = 0, Final residual = 0, No Iterations 0
diagonal:  Solving for theta, Initial residual = 0, Final residual = 0, No Iterations 0
time step continuity errors : sum local = 1.29336e-10, global = 4.37867e-11, cumulative = 5.48878e-10
Maximum rho difference fraction = 1.09363e-08
Heat error = 5.24233e-15
ExecutionTime = 15.17 s  ClockTime = 15 s

Time = 26

Courant Number mean: 0.000826287 max: 0.0155936 max Ndt = 0.0142883
diagonal:  Solving for rho, Initial residual = 0, Final residual = 0, No Iterations 0
diagonal:  Solving for theta, Initial residual = 0, Final residual = 0, No Iterations 0
DICPCG:  Solving for Exner, Initial residual = 1.32784e-05, Final residual = 1.23979e-08, No Iterations 15
DICPCG:  Solving for Exner, Initial residual = 1.63158e-08, Final residual = 8.25534e-11, No Iterations 13
diagonal:  Solving for rho, Initial residual = 0, Final residual = 0, No Iterations 0
diagonal:  Solving for theta, Initial residual = 0, Final residual = 0, No Iterations 0
DICPCG:  Solving for Exner, Initial residual = 4.11688e-06, Final residual = 2.68921e-09, No Iterations 16
DICPCG:  Solving for Exner, Initial residual = 2.70552e-09, Final residual = 8.18893e-11, No Iterations 9
diagonal:  Solving for rho, Initial residual = 0, Final residual = 0, No Iterations 0
diagonal:  Solving for theta, Initial residual = 0, Final residual = 0, No Iterations 0
time step continuity errors : sum local = 1.35608e-10, global = 3.90239e-11, cumulative = 5.87902e-10
Maximum rho difference fraction = 1.08193e-08
Heat error = 9.17408e-16
ExecutionTime = 17.29 s  ClockTime = 17 s

Time = 28

Courant Number mean: 0.000934622 max: 0.0167464 max Ndt = 0.0142943
diagonal:  Solving for rho, Initial residual = 0, Final residual = 0, No Iterations 0
diagonal:  Solving for theta, Initial residual = 0, Final residual = 0, No Iterations 0
DICPCG:  Solving for Exner, Initial residual = 1.43596e-05, Final residual = 1.40519e-08, No Iterations 15
DICPCG:  Solving for Exner, Initial residual = 1.82397e-08, Final residual = 9.44682e-11, No Iterations 13
diagonal:  Solving for rho, Initial residual = 0, Final residual = 0, No Iterations 0
diagonal:  Solving for theta, Initial residual = 0, Final residual = 0, No Iterations 0
DICPCG:  Solving for Exner, Initial residual = 4.24718e-06, Final residual = 3.88373e-09, No Iterations 15
DICPCG:  Solving for Exner, Initial residual = 3.92797e-09, Final residual = 7.03071e-11, No Iterations 10
diagonal:  Solving for rho, Initial residual = 0, Final residual = 0, No Iterations 0
diagonal:  Solving for theta, Initial residual = 0, Final residual = 0, No Iterations 0
time step continuity errors : sum local = 1.40747e-10, global = 3.54191e-11, cumulative = 6.23321e-10
Maximum rho difference fraction = 1.09401e-08
Heat error = -4.58704e-15
ExecutionTime = 19.41 s  ClockTime = 19 s

Time = 30

Courant Number mean: 0.00104438 max: 0.0178586 max Ndt = 0.0143007
diagonal:  Solving for rho, Initial residual = 0, Final residual = 0, No Iterations 0
diagonal:  Solving for theta, Initial residual = 0, Final residual = 0, No Iterations 0
DICPCG:  Solving for Exner, Initial residual = 1.49947e-05, Final residual = 1.37589e-08, No Iterations 15
DICPCG:  Solving for Exner, Initial residual = 1.82775e-08, Final residual = 9.881e-11, No Iterations 13
diagonal:  Solving for rho, Initial residual = 0, Final residual = 0, No Iterations 0
diagonal:  Solving for theta, Initial residual = 0, Final residual = 0, No Iterations 0
DICPCG:  Solving for Exner, Initial residual = 4.25304e-06, Final residual = 3.53711e-09, No Iterations 15
DICPCG:  Solving for Exner, Initial residual = 3.52994e-09, Final residual = 9.81151e-11, No Iterations 9
diagonal:  Solving for rho, Initial residual = 0, Final residual = 0, No Iterations 0
diagonal:  Solving for theta, Initial residual = 0, Final residual = 0, No Iterations 0
time step continuity errors : sum local = 1.48427e-10, global = 3.08387e-11, cumulative = 6.54159e-10
Maximum rho difference fraction = 1.06465e-08
Heat error = -4.84916e-15
ExecutionTime = 21.52 s  ClockTime = 21 s

Time = 32

Courant Number mean: 0.00115246 max: 0.0189763 max Ndt = 0.0143076
diagonal:  Solving for rho, Initial residual = 0, Final residual = 0, No Iterations 0
diagonal:  Solving for theta, Initial residual = 0, Final residual = 0, No Iterations 0
DICPCG:  Solving for Exner, Initial residual = 1.51628e-05, Final residual = 1.33067e-08, No Iterations 15
DICPCG:  Solving for Exner, Initial residual = 1.79182e-08, Final residual = 6.9869e-11, No Iterations 14
diagonal:  Solving for rho, Initial residual = 0, Final residual = 0, No Iterations 0
diagonal:  Solving for theta, Initial residual = 0, Final residual = 0, No Iterations 0
DICPCG:  Solving for Exner, Initial residual = 4.36395e-06, Final residual = 3.41843e-09, No Iterations 15
DICPCG:  Solving for Exner, Initial residual = 3.39533e-09, Final residual = 9.56558e-11, No Iterations 9
diagonal:  Solving for rho, Initial residual = 0, Final residual = 0, No Iterations 0
diagonal:  Solving for theta, Initial residual = 0, Final residual = 0, No Iterations 0
time step continuity errors : sum local = 1.66797e-10, global = 2.83247e-11, cumulative = 6.82484e-10
Maximum rho difference fraction = 1.06509e-08
Heat error = -1.10089e-14
ExecutionTime = 23.61 s  ClockTime = 24 s

Time = 34

Courant Number mean: 0.00125647 max: 0.0201587 max Ndt = 0.0143148
diagonal:  Solving for rho, Initial residual = 0, Final residual = 0, No Iterations 0
diagonal:  Solving for theta, Initial residual = 0, Final residual = 0, No Iterations 0
DICPCG:  Solving for Exner, Initial residual = 1.54657e-05, Final residual = 1.33008e-08, No Iterations 15
DICPCG:  Solving for Exner, Initial residual = 1.80604e-08, Final residual = 7.52485e-11, No Iterations 14
diagonal:  Solving for rho, Initial residual = 0, Final residual = 0, No Iterations 0
diagonal:  Solving for theta, Initial residual = 0, Final residual = 0, No Iterations 0
DICPCG:  Solving for Exner, Initial residual = 4.33532e-06, Final residual = 2.71478e-09, No Iterations 15
DICPCG:  Solving for Exner, Initial residual = 2.74085e-09, Final residual = 8.34981e-11, No Iterations 9
diagonal:  Solving for rho, Initial residual = 0, Final residual = 0, No Iterations 0
diagonal:  Solving for theta, Initial residual = 0, Final residual = 0, No Iterations 0
time step continuity errors : sum local = 1.73111e-10, global = 2.703e-11, cumulative = 7.09514e-10
Maximum rho difference fraction = 9.08926e-09
Heat error = -7.73244e-15
ExecutionTime = 25.61 s  ClockTime = 26 s

Time = 36

Courant Number mean: 0.00135584 max: 0.0214518 max Ndt = 0.0143225
diagonal:  Solving for rho, Initial residual = 0, Final residual = 0, No Iterations 0
diagonal:  Solving for theta, Initial residual = 0, Final residual = 0, No Iterations 0
DICPCG:  Solving for Exner, Initial residual = 1.51965e-05, Final residual = 1.15575e-08, No Iterations 15
DICPCG:  Solving for Exner, Initial residual = 1.73531e-08, Final residual = 7.7742e-11, No Iterations 14
diagonal:  Solving for rho, Initial residual = 0, Final residual = 0, No Iterations 0
diagonal:  Solving for theta, Initial residual = 0, Final residual = 0, No Iterations 0
DICPCG:  Solving for Exner, Initial residual = 4.37299e-06, Final residual = 3.23798e-09, No Iterations 15
DICPCG:  Solving for Exner, Initial residual = 3.29168e-09, Final residual = 8.73409e-11, No Iterations 9
diagonal:  Solving for rho, Initial residual = 0, Final residual = 0, No Iterations 0
diagonal:  Solving for theta, Initial residual = 0, Final residual = 0, No Iterations 0
time step continuity errors : sum local = 1.76276e-10, global = 2.66524e-11, cumulative = 7.36166e-10
Maximum rho difference fraction = 8.85069e-09
Heat error = -8.38773e-15
ExecutionTime = 27.69 s  ClockTime = 28 s

Time = 38

Courant Number mean: 0.00145101 max: 0.0228409 max Ndt = 0.0143307
diagonal:  Solving for rho, Initial residual = 0, Final residual = 0, No Iterations 0
diagonal:  Solving for theta, Initial residual = 0, Final residual = 0, No Iterations 0
DICPCG:  Solving for Exner, Initial residual = 1.44814e-05, Final residual = 1.2107e-08, No Iterations 14
DICPCG:  Solving for Exner, Initial residual = 1.89203e-08, Final residual = 7.1746e-11, No Iterations 14
diagonal:  Solving for rho, Initial residual = 0, Final residual = 0, No Iterations 0
diagonal:  Solving for theta, Initial residual = 0, Final residual = 0, No Iterations 0
DICPCG:  Solving for Exner, Initial residual = 4.54987e-06, Final residual = 3.65983e-09, No Iterations 15
DICPCG:  Solving for Exner, Initial residual = 3.68401e-09, Final residual = 9.43745e-11, No Iterations 9
diagonal:  Solving for rho, Initial residual = 0, Final residual = 0, No Iterations 0
diagonal:  Solving for theta, Initial residual = 0, Final residual = 0, No Iterations 0
time step continuity errors : sum local = 1.83765e-10, global = 2.67303e-11, cumulative = 7.62897e-10
Maximum rho difference fraction = 9.22005e-09
Heat error = -1.67755e-14
ExecutionTime = 29.59 s  ClockTime = 30 s

Time = 40

Courant Number mean: 0.00154251 max: 0.0242592 max Ndt = 0.0143394
diagonal:  Solving for rho, Initial residual = 0, Final residual = 0, No Iterations 0
diagonal:  Solving for theta, Initial residual = 0, Final residual = 0, No Iterations 0
DICPCG:  Solving for Exner, Initial residual = 1.46262e-05, Final residual = 1.313e-08, No Iterations 14
DICPCG:  Solving for Exner, Initial residual = 2.03124e-08, Final residual = 6.7014e-11, No Iterations 14
diagonal:  Solving for rho, Initial residual = 0, Final residual = 0, No Iterations 0
diagonal:  Solving for theta, Initial residual = 0, Final residual = 0, No Iterations 0
DICPCG:  Solving for Exner, Initial residual = 4.62081e-06, Final residual = 3.75778e-09, No Iterations 15
DICPCG:  Solving for Exner, Initial residual = 3.84012e-09, Final residual = 6.45233e-11, No Iterations 10
diagonal:  Solving for rho, Initial residual = 0, Final residual = 0, No Iterations 0
diagonal:  Solving for theta, Initial residual = 0, Final residual = 0, No Iterations 0
time step continuity errors : sum local = 1.83e-10, global = 2.72123e-11, cumulative = 7.90109e-10
Maximum rho difference fraction = 8.70651e-09
Heat error = -6.42186e-15
ExecutionTime = 31.16 s  ClockTime = 31 s

Time = 42

Courant Number mean: 0.00163135 max: 0.0256373 max Ndt = 0.0143486
diagonal:  Solving for rho, Initial residual = 0, Final residual = 0, No Iterations 0
diagonal:  Solving for theta, Initial residual = 0, Final residual = 0, No Iterations 0
DICPCG:  Solving for Exner, Initial residual = 1.49467e-05, Final residual = 9.7886e-09, No Iterations 15
DICPCG:  Solving for Exner, Initial residual = 1.70147e-08, Final residual = 9.39121e-11, No Iterations 13
diagonal:  Solving for rho, Initial residual = 0, Final residual = 0, No Iterations 0
diagonal:  Solving for theta, Initial residual = 0, Final residual = 0, No Iterations 0
DICPCG:  Solving for Exner, Initial residual = 4.48084e-06, Final residual = 3.43323e-09, No Iterations 15
DICPCG:  Solving for Exner, Initial residual = 3.56962e-09, Final residual = 9.52815e-11, No Iterations 9
diagonal:  Solving for rho, Initial residual = 0, Final residual = 0, No Iterations 0
diagonal:  Solving for theta, Initial residual = 0, Final residual = 0, No Iterations 0
time step continuity errors : sum local = 1.92205e-10, global = 2.76375e-11, cumulative = 8.17747e-10
Maximum rho difference fraction = 8.98384e-09
Heat error = -4.45598e-15
ExecutionTime = 32.68 s  ClockTime = 33 s

Time = 44

Courant Number mean: 0.00171916 max: 0.0269507 max Ndt = 0.0143583
diagonal:  Solving for rho, Initial residual = 0, Final residual = 0, No Iterations 0
diagonal:  Solving for theta, Initial residual = 0, Final residual = 0, No Iterations 0
DICPCG:  Solving for Exner, Initial residual = 1.48306e-05, Final residual = 1.08279e-08, No Iterations 15
DICPCG:  Solving for Exner, Initial residual = 1.79261e-08, Final residual = 6.78829e-11, No Iterations 14
diagonal:  Solving for rho, Initial residual = 0, Final residual = 0, No Iterations 0
diagonal:  Solving for theta, Initial residual = 0, Final residual = 0, No Iterations 0
DICPCG:  Solving for Exner, Initial residual = 4.29089e-06, Final residual = 2.79042e-09, No Iterations 15
DICPCG:  Solving for Exner, Initial residual = 2.92662e-09, Final residual = 7.75472e-11, No Iterations 9
diagonal:  Solving for rho, Initial residual = 0, Final residual = 0, No Iterations 0
diagonal:  Solving for theta, Initial residual = 0, Final residual = 0, No Iterations 0
time step continuity errors : sum local = 1.95834e-10, global = 2.66106e-11, cumulative = 8.44357e-10
Maximum rho difference fraction = 1.05303e-08
Heat error = -1.58581e-14
ExecutionTime = 34.23 s  ClockTime = 34 s

Time = 46

Courant Number mean: 0.00180686 max: 0.0281966 max Ndt = 0.0143683
diagonal:  Solving for rho, Initial residual = 0, Final residual = 0, No Iterations 0
diagonal:  Solving for theta, Initial residual = 0, Final residual = 0, No Iterations 0
DICPCG:  Solving for Exner, Initial residual = 1.43836e-05, Final residual = 1.08512e-08, No Iterations 15
DICPCG:  Solving for Exner, Initial residual = 1.79741e-08, Final residual = 7.33283e-11, No Iterations 14
diagonal:  Solving for rho, Initial residual = 0, Final residual = 0, No Iterations 0
diagonal:  Solving for theta, Initial residual = 0, Final residual = 0, No Iterations 0
DICPCG:  Solving for Exner, Initial residual = 4.4081e-06, Final residual = 3.18965e-09, No Iterations 15
DICPCG:  Solving for Exner, Initial residual = 3.33789e-09, Final residual = 9.01976e-11, No Iterations 9
diagonal:  Solving for rho, Initial residual = 0, Final residual = 0, No Iterations 0
diagonal:  Solving for theta, Initial residual = 0, Final residual = 0, No Iterations 0
time step continuity errors : sum local = 1.97309e-10, global = 2.39944e-11, cumulative = 8.68352e-10
Maximum rho difference fraction = 1.03805e-08
Heat error = -1.75618e-14
ExecutionTime = 35.99 s  ClockTime = 36 s

Time = 48

Courant Number mean: 0.00189421 max: 0.029418 max Ndt = 0.0143785
diagonal:  Solving for rho, Initial residual = 0, Final residual = 0, No Iterations 0
diagonal:  Solving for theta, Initial residual = 0, Final residual = 0, No Iterations 0
DICPCG:  Solving for Exner, Initial residual = 1.42079e-05, Final residual = 1.00588e-08, No Iterations 15
DICPCG:  Solving for Exner, Initial residual = 1.73791e-08, Final residual = 6.92858e-11, No Iterations 14
diagonal:  Solving for rho, Initial residual = 0, Final residual = 0, No Iterations 0
diagonal:  Solving for theta, Initial residual = 0, Final residual = 0, No Iterations 0
DICPCG:  Solving for Exner, Initial residual = 4.44689e-06, Final residual = 3.18941e-09, No Iterations 15
DICPCG:  Solving for Exner, Initial residual = 3.33112e-09, Final residual = 9.20925e-11, No Iterations 9
diagonal:  Solving for rho, Initial residual = 0, Final residual = 0, No Iterations 0
diagonal:  Solving for theta, Initial residual = 0, Final residual = 0, No Iterations 0
time step continuity errors : sum local = 2.00164e-10, global = 2.05135e-11, cumulative = 8.88865e-10
Maximum rho difference fraction = 1.05558e-08
Heat error = -3.66963e-15
ExecutionTime = 37.68 s  ClockTime = 38 s

Time = 50

Courant Number mean: 0.00198429 max: 0.0306639 max Ndt = 0.0143891
diagonal:  Solving for rho, Initial residual = 0, Final residual = 0, No Iterations 0
diagonal:  Solving for theta, Initial residual = 0, Final residual = 0, No Iterations 0
DICPCG:  Solving for Exner, Initial residual = 1.42851e-05, Final residual = 1.22948e-08, No Iterations 15
DICPCG:  Solving for Exner, Initial residual = 2.01276e-08, Final residual = 7.95473e-11, No Iterations 14
diagonal:  Solving for rho, Initial residual = 0, Final residual = 0, No Iterations 0
diagonal:  Solving for theta, Initial residual = 0, Final residual = 0, No Iterations 0
DICPCG:  Solving for Exner, Initial residual = 4.36826e-06, Final residual = 3.10158e-09, No Iterations 15
DICPCG:  Solving for Exner, Initial residual = 3.20131e-09, Final residual = 8.24349e-11, No Iterations 9
diagonal:  Solving for rho, Initial residual = 0, Final residual = 0, No Iterations 0
diagonal:  Solving for theta, Initial residual = 0, Final residual = 0, No Iterations 0
time step continuity errors : sum local = 2.07769e-10, global = 1.63196e-11, cumulative = 9.05185e-10
Maximum rho difference fraction = 1.06565e-08
Heat error = -4.32492e-15
ExecutionTime = 39.24 s  ClockTime = 39 s

Time = 52

Courant Number mean: 0.00207788 max: 0.0319526 max Ndt = 0.0144
diagonal:  Solving for rho, Initial residual = 0, Final residual = 0, No Iterations 0
diagonal:  Solving for theta, Initial residual = 0, Final residual = 0, No Iterations 0
DICPCG:  Solving for Exner, Initial residual = 1.41687e-05, Final residual = 1.28399e-08, No Iterations 15
DICPCG:  Solving for Exner, Initial residual = 2.11368e-08, Final residual = 8.30919e-11, No Iterations 14
diagonal:  Solving for rho, Initial residual = 0, Final residual = 0, No Iterations 0
diagonal:  Solving for theta, Initial residual = 0, Final residual = 0, No Iterations 0
DICPCG:  Solving for Exner, Initial residual = 4.23402e-06, Final residual = 4.19373e-09, No Iterations 14
DICPCG:  Solving for Exner, Initial residual = 4.26893e-09, Final residual = 9.99678e-11, No Iterations 9
diagonal:  Solving for rho, Initial residual = 0, Final residual = 0, No Iterations 0
diagonal:  Solving for theta, Initial residual = 0, Final residual = 0, No Iterations 0
time step continuity errors : sum local = 2.20853e-10, global = 1.06359e-11, cumulative = 9.15821e-10
Maximum rho difference fraction = 1.10902e-08
Heat error = -4.7181e-15
ExecutionTime = 40.72 s  ClockTime = 41 s

Time = 54

Courant Number mean: 0.0021708 max: 0.0332656 max Ndt = 0.0144113
diagonal:  Solving for rho, Initial residual = 0, Final residual = 0, No Iterations 0
diagonal:  Solving for theta, Initial residual = 0, Final residual = 0, No Iterations 0
DICPCG:  Solving for Exner, Initial residual = 1.38425e-05, Final residual = 1.12408e-08, No Iterations 15
DICPCG:  Solving for Exner, Initial residual = 1.99386e-08, Final residual = 7.54603e-11, No Iterations 14
diagonal:  Solving for rho, Initial residual = 0, Final residual = 0, No Iterations 0
diagonal:  Solving for theta, Initial residual = 0, Final residual = 0, No Iterations 0
DICPCG:  Solving for Exner, Initial residual = 4.27566e-06, Final residual = 2.91002e-09, No Iterations 15
DICPCG:  Solving for Exner, Initial residual = 2.96669e-09, Final residual = 6.61618e-11, No Iterations 9
diagonal:  Solving for rho, Initial residual = 0, Final residual = 0, No Iterations 0
diagonal:  Solving for theta, Initial residual = 0, Final residual = 0, No Iterations 0
time step continuity errors : sum local = 2.19862e-10, global = 7.61467e-12, cumulative = 9.23435e-10
Maximum rho difference fraction = 1.10485e-08
Heat error = 1.96587e-15
ExecutionTime = 42.19 s  ClockTime = 42 s

Time = 56

Courant Number mean: 0.00226141 max: 0.0345705 max Ndt = 0.014423
diagonal:  Solving for rho, Initial residual = 0, Final residual = 0, No Iterations 0
diagonal:  Solving for theta, Initial residual = 0, Final residual = 0, No Iterations 0
DICPCG:  Solving for Exner, Initial residual = 1.38072e-05, Final residual = 1.15483e-08, No Iterations 15
DICPCG:  Solving for Exner, Initial residual = 2.07519e-08, Final residual = 7.93788e-11, No Iterations 14
diagonal:  Solving for rho, Initial residual = 0, Final residual = 0, No Iterations 0
diagonal:  Solving for theta, Initial residual = 0, Final residual = 0, No Iterations 0
DICPCG:  Solving for Exner, Initial residual = 4.23828e-06, Final residual = 2.93381e-09, No Iterations 15
DICPCG:  Solving for Exner, Initial residual = 2.98728e-09, Final residual = 7.21035e-11, No Iterations 9
diagonal:  Solving for rho, Initial residual = 0, Final residual = 0, No Iterations 0
diagonal:  Solving for theta, Initial residual = 0, Final residual = 0, No Iterations 0
time step continuity errors : sum local = 2.16872e-10, global = 4.94943e-12, cumulative = 9.28385e-10
Maximum rho difference fraction = 1.10305e-08
Heat error = 5.24233e-16
ExecutionTime = 43.98 s  ClockTime = 44 s

Time = 58

Courant Number mean: 0.00234802 max: 0.0358483 max Ndt = 0.014435
diagonal:  Solving for rho, Initial residual = 0, Final residual = 0, No Iterations 0
diagonal:  Solving for theta, Initial residual = 0, Final residual = 0, No Iterations 0
DICPCG:  Solving for Exner, Initial residual = 1.38537e-05, Final residual = 1.19062e-08, No Iterations 15
DICPCG:  Solving for Exner, Initial residual = 2.16711e-08, Final residual = 8.43086e-11, No Iterations 14
diagonal:  Solving for rho, Initial residual = 0, Final residual = 0, No Iterations 0
diagonal:  Solving for theta, Initial residual = 0, Final residual = 0, No Iterations 0
DICPCG:  Solving for Exner, Initial residual = 4.07131e-06, Final residual = 3.73483e-09, No Iterations 14
DICPCG:  Solving for Exner, Initial residual = 3.78373e-09, Final residual = 6.90114e-11, No Iterations 10
diagonal:  Solving for rho, Initial residual = 0, Final residual = 0, No Iterations 0
diagonal:  Solving for theta, Initial residual = 0, Final residual = 0, No Iterations 0
time step continuity errors : sum local = 2.17097e-10, global = 2.47979e-12, cumulative = 9.30864e-10
Maximum rho difference fraction = 1.11551e-08
Heat error = -1.37611e-14
ExecutionTime = 45.96 s  ClockTime = 46 s

Time = 60

Courant Number mean: 0.00242849 max: 0.0371033 max Ndt = 0.0144472
diagonal:  Solving for rho, Initial residual = 0, Final residual = 0, No Iterations 0
diagonal:  Solving for theta, Initial residual = 0, Final residual = 0, No Iterations 0
DICPCG:  Solving for Exner, Initial residual = 1.35123e-05, Final residual = 1.17175e-08, No Iterations 15
DICPCG:  Solving for Exner, Initial residual = 2.17697e-08, Final residual = 8.18658e-11, No Iterations 14
diagonal:  Solving for rho, Initial residual = 0, Final residual = 0, No Iterations 0
diagonal:  Solving for theta, Initial residual = 0, Final residual = 0, No Iterations 0
DICPCG:  Solving for Exner, Initial residual = 3.8994e-06, Final residual = 3.69272e-09, No Iterations 14
DICPCG:  Solving for Exner, Initial residual = 3.71983e-09, Final residual = 7.01917e-11, No Iterations 10
diagonal:  Solving for rho, Initial residual = 0, Final residual = 0, No Iterations 0
diagonal:  Solving for theta, Initial residual = 0, Final residual = 0, No Iterations 0
time step continuity errors : sum local = 2.23383e-10, global = 7.94842e-14, cumulative = 9.30944e-10
Maximum rho difference fraction = 1.10995e-08
Heat error = -9.82937e-15
ExecutionTime = 47.7 s  ClockTime = 48 s

Time = 62

Courant Number mean: 0.00250033 max: 0.0383508 max Ndt = 0.0144597
diagonal:  Solving for rho, Initial residual = 0, Final residual = 0, No Iterations 0
diagonal:  Solving for theta, Initial residual = 0, Final residual = 0, No Iterations 0
DICPCG:  Solving for Exner, Initial residual = 1.29231e-05, Final residual = 1.10358e-08, No Iterations 15
DICPCG:  Solving for Exner, Initial residual = 2.13052e-08, Final residual = 8.43344e-11, No Iterations 14
diagonal:  Solving for rho, Initial residual = 0, Final residual = 0, No Iterations 0
diagonal:  Solving for theta, Initial residual = 0, Final residual = 0, No Iterations 0
DICPCG:  Solving for Exner, Initial residual = 3.79977e-06, Final residual = 2.91603e-09, No Iterations 15
DICPCG:  Solving for Exner, Initial residual = 2.92259e-09, Final residual = 8.57759e-11, No Iterations 9
diagonal:  Solving for rho, Initial residual = 0, Final residual = 0, No Iterations 0
diagonal:  Solving for theta, Initial residual = 0, Final residual = 0, No Iterations 0
time step continuity errors : sum local = 2.25367e-10, global = -1.48397e-12, cumulative = 9.2946e-10
Maximum rho difference fraction = 1.1095e-08
Heat error = 3.27646e-15
ExecutionTime = 49.23 s  ClockTime = 49 s

Time = 64

Courant Number mean: 0.00256136 max: 0.0396008 max Ndt = 0.0144725
diagonal:  Solving for rho, Initial residual = 0, Final residual = 0, No Iterations 0
diagonal:  Solving for theta, Initial residual = 0, Final residual = 0, No Iterations 0
DICPCG:  Solving for Exner, Initial residual = 1.21732e-05, Final residual = 1.04107e-08, No Iterations 15
DICPCG:  Solving for Exner, Initial residual = 2.09007e-08, Final residual = 8.25355e-11, No Iterations 14
diagonal:  Solving for rho, Initial residual = 0, Final residual = 0, No Iterations 0
diagonal:  Solving for theta, Initial residual = 0, Final residual = 0, No Iterations 0
DICPCG:  Solving for Exner, Initial residual = 3.73793e-06, Final residual = 2.99445e-09, No Iterations 15
DICPCG:  Solving for Exner, Initial residual = 2.98907e-09, Final residual = 8.09261e-11, No Iterations 9
diagonal:  Solving for rho, Initial residual = 0, Final residual = 0, No Iterations 0
diagonal:  Solving for theta, Initial residual = 0, Final residual = 0, No Iterations 0
time step continuity errors : sum local = 2.27946e-10, global = -2.59764e-12, cumulative = 9.26862e-10
Maximum rho difference fraction = 1.10485e-08
Heat error = -2.88328e-15
ExecutionTime = 50.74 s  ClockTime = 51 s

Time = 66

Courant Number mean: 0.00261083 max: 0.0408515 max Ndt = 0.0144854
diagonal:  Solving for rho, Initial residual = 0, Final residual = 0, No Iterations 0
diagonal:  Solving for theta, Initial residual = 0, Final residual = 0, No Iterations 0
DICPCG:  Solving for Exner, Initial residual = 1.12764e-05, Final residual = 7.83091e-09, No Iterations 15
DICPCG:  Solving for Exner, Initial residual = 1.8743e-08, Final residual = 7.46613e-11, No Iterations 14
diagonal:  Solving for rho, Initial residual = 0, Final residual = 0, No Iterations 0
diagonal:  Solving for theta, Initial residual = 0, Final residual = 0, No Iterations 0
DICPCG:  Solving for Exner, Initial residual = 3.72336e-06, Final residual = 3.0676e-09, No Iterations 15
DICPCG:  Solving for Exner, Initial residual = 3.08153e-09, Final residual = 8.13669e-11, No Iterations 9
diagonal:  Solving for rho, Initial residual = 0, Final residual = 0, No Iterations 0
diagonal:  Solving for theta, Initial residual = 0, Final residual = 0, No Iterations 0
time step continuity errors : sum local = 2.29338e-10, global = -3.32289e-12, cumulative = 9.23539e-10
Maximum rho difference fraction = 1.15028e-08
Heat error = -7.73244e-15
ExecutionTime = 52.23 s  ClockTime = 52 s

Time = 68

Courant Number mean: 0.00265197 max: 0.0420964 max Ndt = 0.0144986
diagonal:  Solving for rho, Initial residual = 0, Final residual = 0, No Iterations 0
diagonal:  Solving for theta, Initial residual = 0, Final residual = 0, No Iterations 0
DICPCG:  Solving for Exner, Initial residual = 1.08763e-05, Final residual = 7.32529e-09, No Iterations 15
DICPCG:  Solving for Exner, Initial residual = 1.8946e-08, Final residual = 7.1054e-11, No Iterations 14
diagonal:  Solving for rho, Initial residual = 0, Final residual = 0, No Iterations 0
diagonal:  Solving for theta, Initial residual = 0, Final residual = 0, No Iterations 0
DICPCG:  Solving for Exner, Initial residual = 3.68951e-06, Final residual = 3.41836e-09, No Iterations 15
DICPCG:  Solving for Exner, Initial residual = 3.4564e-09, Final residual = 8.90452e-11, No Iterations 9
diagonal:  Solving for rho, Initial residual = 0, Final residual = 0, No Iterations 0
diagonal:  Solving for theta, Initial residual = 0, Final residual = 0, No Iterations 0
time step continuity errors : sum local = 2.32422e-10, global = -3.46558e-12, cumulative = 9.20074e-10
Maximum rho difference fraction = 1.57768e-08
Heat error = -5.89762e-15
ExecutionTime = 54.04 s  ClockTime = 54 s

Time = 70

Courant Number mean: 0.00271558 max: 0.0433352 max Ndt = 0.0145121
diagonal:  Solving for rho, Initial residual = 0, Final residual = 0, No Iterations 0
diagonal:  Solving for theta, Initial residual = 0, Final residual = 0, No Iterations 0
DICPCG:  Solving for Exner, Initial residual = 1.10571e-05, Final residual = 9.74093e-09, No Iterations 15
DICPCG:  Solving for Exner, Initial residual = 2.17958e-08, Final residual = 7.717e-11, No Iterations 14
diagonal:  Solving for rho, Initial residual = 0, Final residual = 0, No Iterations 0
diagonal:  Solving for theta, Initial residual = 0, Final residual = 0, No Iterations 0
DICPCG:  Solving for Exner, Initial residual = 3.47449e-06, Final residual = 3.1662e-09, No Iterations 15
DICPCG:  Solving for Exner, Initial residual = 3.21132e-09, Final residual = 8.45854e-11, No Iterations 9
diagonal:  Solving for rho, Initial residual = 0, Final residual = 0, No Iterations 0
diagonal:  Solving for theta, Initial residual = 0, Final residual = 0, No Iterations 0
time step continuity errors : sum local = 2.38055e-10, global = -2.96296e-12, cumulative = 9.17111e-10
Maximum rho difference fraction = 2.27945e-08
Heat error = -1.32369e-14
ExecutionTime = 55.69 s  ClockTime = 56 s

Time = 72

Courant Number mean: 0.00278475 max: 0.0445767 max Ndt = 0.0145256
diagonal:  Solving for rho, Initial residual = 0, Final residual = 0, No Iterations 0
diagonal:  Solving for theta, Initial residual = 0, Final residual = 0, No Iterations 0
DICPCG:  Solving for Exner, Initial residual = 1.0825e-05, Final residual = 7.21555e-09, No Iterations 16
DICPCG:  Solving for Exner, Initial residual = 2.01038e-08, Final residual = 7.1789e-11, No Iterations 14
diagonal:  Solving for rho, Initial residual = 0, Final residual = 0, No Iterations 0
diagonal:  Solving for theta, Initial residual = 0, Final residual = 0, No Iterations 0
DICPCG:  Solving for Exner, Initial residual = 3.20353e-06, Final residual = 2.75378e-09, No Iterations 15
DICPCG:  Solving for Exner, Initial residual = 2.78618e-09, Final residual = 7.64287e-11, No Iterations 9
diagonal:  Solving for rho, Initial residual = 0, Final residual = 0, No Iterations 0
diagonal:  Solving for theta, Initial residual = 0, Final residual = 0, No Iterations 0
time step continuity errors : sum local = 2.42374e-10, global = -2.44397e-12, cumulative = 9.14667e-10
Maximum rho difference fraction = 2.34059e-08
Heat error = -2.34594e-14
ExecutionTime = 57.24 s  ClockTime = 57 s

Time = 74

Courant Number mean: 0.00285698 max: 0.0458334 max Ndt = 0.0145394
diagonal:  Solving for rho, Initial residual = 0, Final residual = 0, No Iterations 0
diagonal:  Solving for theta, Initial residual = 0, Final residual = 0, No Iterations 0
DICPCG:  Solving for Exner, Initial residual = 1.0081e-05, Final residual = 7.0682e-09, No Iterations 16
DICPCG:  Solving for Exner, Initial residual = 2.04087e-08, Final residual = 7.5954e-11, No Iterations 14
diagonal:  Solving for rho, Initial residual = 0, Final residual = 0, No Iterations 0
diagonal:  Solving for theta, Initial residual = 0, Final residual = 0, No Iterations 0
DICPCG:  Solving for Exner, Initial residual = 3.11687e-06, Final residual = 2.58464e-09, No Iterations 15
DICPCG:  Solving for Exner, Initial residual = 2.61212e-09, Final residual = 7.42894e-11, No Iterations 9
diagonal:  Solving for rho, Initial residual = 0, Final residual = 0, No Iterations 0
diagonal:  Solving for theta, Initial residual = 0, Final residual = 0, No Iterations 0
time step continuity errors : sum local = 2.39122e-10, global = -2.28977e-12, cumulative = 9.12377e-10
Maximum rho difference fraction = 2.17091e-08
Heat error = -8.51879e-15
ExecutionTime = 58.74 s  ClockTime = 59 s

Time = 76

Courant Number mean: 0.00292622 max: 0.0471128 max Ndt = 0.0145533
diagonal:  Solving for rho, Initial residual = 0, Final residual = 0, No Iterations 0
diagonal:  Solving for theta, Initial residual = 0, Final residual = 0, No Iterations 0
DICPCG:  Solving for Exner, Initial residual = 9.43013e-06, Final residual = 8.93911e-09, No Iterations 15
DICPCG:  Solving for Exner, Initial residual = 2.23648e-08, Final residual = 9.09894e-11, No Iterations 14
diagonal:  Solving for rho, Initial residual = 0, Final residual = 0, No Iterations 0
diagonal:  Solving for theta, Initial residual = 0, Final residual = 0, No Iterations 0
DICPCG:  Solving for Exner, Initial residual = 3.24282e-06, Final residual = 2.67594e-09, No Iterations 15
DICPCG:  Solving for Exner, Initial residual = 2.7192e-09, Final residual = 7.49607e-11, No Iterations 9
diagonal:  Solving for rho, Initial residual = 0, Final residual = 0, No Iterations 0
diagonal:  Solving for theta, Initial residual = 0, Final residual = 0, No Iterations 0
time step continuity errors : sum local = 2.3522e-10, global = -2.77913e-12, cumulative = 9.09598e-10
Maximum rho difference fraction = 2.46339e-08
Heat error = -6.2908e-15
ExecutionTime = 60.24 s  ClockTime = 60 s

Time = 78

Courant Number mean: 0.00300371 max: 0.0484126 max Ndt = 0.0145673
diagonal:  Solving for rho, Initial residual = 0, Final residual = 0, No Iterations 0
diagonal:  Solving for theta, Initial residual = 0, Final residual = 0, No Iterations 0
DICPCG:  Solving for Exner, Initial residual = 9.41038e-06, Final residual = 8.90763e-09, No Iterations 15
DICPCG:  Solving for Exner, Initial residual = 2.24455e-08, Final residual = 8.82298e-11, No Iterations 14
diagonal:  Solving for rho, Initial residual = 0, Final residual = 0, No Iterations 0
diagonal:  Solving for theta, Initial residual = 0, Final residual = 0, No Iterations 0
DICPCG:  Solving for Exner, Initial residual = 3.20497e-06, Final residual = 2.84196e-09, No Iterations 15
DICPCG:  Solving for Exner, Initial residual = 2.91002e-09, Final residual = 7.13321e-11, No Iterations 9
diagonal:  Solving for rho, Initial residual = 0, Final residual = 0, No Iterations 0
diagonal:  Solving for theta, Initial residual = 0, Final residual = 0, No Iterations 0
time step continuity errors : sum local = 2.33626e-10, global = -3.93602e-12, cumulative = 9.05662e-10
Maximum rho difference fraction = 3.20991e-08
Heat error = -6.68397e-15
ExecutionTime = 62.07 s  ClockTime = 62 s

Time = 80

Courant Number mean: 0.00310176 max: 0.0497223 max Ndt = 0.0145814
diagonal:  Solving for rho, Initial residual = 0, Final residual = 0, No Iterations 0
diagonal:  Solving for theta, Initial residual = 0, Final residual = 0, No Iterations 0
DICPCG:  Solving for Exner, Initial residual = 9.90397e-06, Final residual = 6.71173e-09, No Iterations 16
DICPCG:  Solving for Exner, Initial residual = 2.07826e-08, Final residual = 7.71229e-11, No Iterations 14
diagonal:  Solving for rho, Initial residual = 0, Final residual = 0, No Iterations 0
diagonal:  Solving for theta, Initial residual = 0, Final residual = 0, No Iterations 0
DICPCG:  Solving for Exner, Initial residual = 2.85492e-06, Final residual = 2.69013e-09, No Iterations 15
DICPCG:  Solving for Exner, Initial residual = 2.75115e-09, Final residual = 9.65051e-11, No Iterations 8
diagonal:  Solving for rho, Initial residual = 0, Final residual = 0, No Iterations 0
diagonal:  Solving for theta, Initial residual = 0, Final residual = 0, No Iterations 0
time step continuity errors : sum local = 2.42399e-10, global = -6.05782e-12, cumulative = 8.99604e-10
Maximum rho difference fraction = 2.13478e-08
Heat error = 5.50445e-15
ExecutionTime = 64.1 s  ClockTime = 64 s

Time = 82

Courant Number mean: 0.00320467 max: 0.0510281 max Ndt = 0.0145955
diagonal:  Solving for rho, Initial residual = 0, Final residual = 0, No Iterations 0
diagonal:  Solving for theta, Initial residual = 0, Final residual = 0, No Iterations 0
DICPCG:  Solving for Exner, Initial residual = 9.78327e-06, Final residual = 6.91571e-09, No Iterations 16
DICPCG:  Solving for Exner, Initial residual = 2.11554e-08, Final residual = 7.6695e-11, No Iterations 14
diagonal:  Solving for rho, Initial residual = 0, Final residual = 0, No Iterations 0
diagonal:  Solving for theta, Initial residual = 0, Final residual = 0, No Iterations 0
DICPCG:  Solving for Exner, Initial residual = 2.7913e-06, Final residual = 2.35649e-09, No Iterations 15
DICPCG:  Solving for Exner, Initial residual = 2.40049e-09, Final residual = 8.04554e-11, No Iterations 8
diagonal:  Solving for rho, Initial residual = 0, Final residual = 0, No Iterations 0
diagonal:  Solving for theta, Initial residual = 0, Final residual = 0, No Iterations 0
time step continuity errors : sum local = 2.52087e-10, global = -9.25122e-12, cumulative = 8.90353e-10
Maximum rho difference fraction = 1.41188e-08
Heat error = -9.17408e-16
ExecutionTime = 65.9 s  ClockTime = 66 s

Time = 84

Courant Number mean: 0.00329999 max: 0.0523186 max Ndt = 0.0146096
diagonal:  Solving for rho, Initial residual = 0, Final residual = 0, No Iterations 0
diagonal:  Solving for theta, Initial residual = 0, Final residual = 0, No Iterations 0
DICPCG:  Solving for Exner, Initial residual = 9.05532e-06, Final residual = 6.46524e-09, No Iterations 16
DICPCG:  Solving for Exner, Initial residual = 2.07725e-08, Final residual = 7.74373e-11, No Iterations 14
diagonal:  Solving for rho, Initial residual = 0, Final residual = 0, No Iterations 0
diagonal:  Solving for theta, Initial residual = 0, Final residual = 0, No Iterations 0
DICPCG:  Solving for Exner, Initial residual = 2.87719e-06, Final residual = 2.26653e-09, No Iterations 15
DICPCG:  Solving for Exner, Initial residual = 2.30172e-09, Final residual = 8.66891e-11, No Iterations 8
diagonal:  Solving for rho, Initial residual = 0, Final residual = 0, No Iterations 0
diagonal:  Solving for theta, Initial residual = 0, Final residual = 0, No Iterations 0
time step continuity errors : sum local = 2.54473e-10, global = -1.35389e-11, cumulative = 8.76814e-10
Maximum rho difference fraction = 1.7901e-08
Heat error = -1.28437e-14
ExecutionTime = 67.53 s  ClockTime = 67 s

Time = 86

Courant Number mean: 0.00339507 max: 0.053589 max Ndt = 0.0146237
diagonal:  Solving for rho, Initial residual = 0, Final residual = 0, No Iterations 0
diagonal:  Solving for theta, Initial residual = 0, Final residual = 0, No Iterations 0
DICPCG:  Solving for Exner, Initial residual = 9.62814e-06, Final residual = 6.41783e-09, No Iterations 16
DICPCG:  Solving for Exner, Initial residual = 2.10333e-08, Final residual = 7.87511e-11, No Iterations 14
diagonal:  Solving for rho, Initial residual = 0, Final residual = 0, No Iterations 0
diagonal:  Solving for theta, Initial residual = 0, Final residual = 0, No Iterations 0
DICPCG:  Solving for Exner, Initial residual = 3.0403e-06, Final residual = 2.47934e-09, No Iterations 15
DICPCG:  Solving for Exner, Initial residual = 2.52443e-09, Final residual = 6.43799e-11, No Iterations 9
diagonal:  Solving for rho, Initial residual = 0, Final residual = 0, No Iterations 0
diagonal:  Solving for theta, Initial residual = 0, Final residual = 0, No Iterations 0
time step continuity errors : sum local = 2.60028e-10, global = -1.73346e-11, cumulative = 8.5948e-10
Maximum rho difference fraction = 1.96346e-08
Heat error = -1.15331e-14
ExecutionTime = 69.1 s  ClockTime = 69 s

Time = 88

Courant Number mean: 0.00349295 max: 0.0548425 max Ndt = 0.0146377
diagonal:  Solving for rho, Initial residual = 0, Final residual = 0, No Iterations 0
diagonal:  Solving for theta, Initial residual = 0, Final residual = 0, No Iterations 0
DICPCG:  Solving for Exner, Initial residual = 1.0506e-05, Final residual = 6.9943e-09, No Iterations 16
DICPCG:  Solving for Exner, Initial residual = 2.2184e-08, Final residual = 8.28166e-11, No Iterations 14
diagonal:  Solving for rho, Initial residual = 0, Final residual = 0, No Iterations 0
diagonal:  Solving for theta, Initial residual = 0, Final residual = 0, No Iterations 0
DICPCG:  Solving for Exner, Initial residual = 2.79132e-06, Final residual = 2.1667e-09, No Iterations 15
DICPCG:  Solving for Exner, Initial residual = 2.20348e-09, Final residual = 9.74173e-11, No Iterations 8
diagonal:  Solving for rho, Initial residual = 0, Final residual = 0, No Iterations 0
diagonal:  Solving for theta, Initial residual = 0, Final residual = 0, No Iterations 0
time step continuity errors : sum local = 2.54133e-10, global = -2.30614e-11, cumulative = 8.36418e-10
Maximum rho difference fraction = 2.42981e-08
Heat error = 1.96587e-15
ExecutionTime = 70.88 s  ClockTime = 71 s

Time = 90

Courant Number mean: 0.00359248 max: 0.0560887 max Ndt = 0.0146567
diagonal:  Solving for rho, Initial residual = 0, Final residual = 0, No Iterations 0
diagonal:  Solving for theta, Initial residual = 0, Final residual = 0, No Iterations 0
DICPCG:  Solving for Exner, Initial residual = 1.06483e-05, Final residual = 1.04399e-08, No Iterations 15
DICPCG:  Solving for Exner, Initial residual = 2.59718e-08, Final residual = 9.84281e-11, No Iterations 14
diagonal:  Solving for rho, Initial residual = 0, Final residual = 0, No Iterations 0
diagonal:  Solving for theta, Initial residual = 0, Final residual = 0, No Iterations 0
DICPCG:  Solving for Exner, Initial residual = 2.27788e-06, Final residual = 2.08361e-09, No Iterations 15
DICPCG:  Solving for Exner, Initial residual = 2.1114e-09, Final residual = 9.03611e-11, No Iterations 8
diagonal:  Solving for rho, Initial residual = 0, Final residual = 0, No Iterations 0
diagonal:  Solving for theta, Initial residual = 0, Final residual = 0, No Iterations 0
time step continuity errors : sum local = 2.52507e-10, global = -2.79198e-11, cumulative = 8.08498e-10
Maximum rho difference fraction = 3.12428e-08
Heat error = 2.62117e-16
ExecutionTime = 72.94 s  ClockTime = 73 s

Time = 92

Courant Number mean: 0.00367578 max: 0.0573387 max Ndt = 0.01468
diagonal:  Solving for rho, Initial residual = 0, Final residual = 0, No Iterations 0
diagonal:  Solving for theta, Initial residual = 0, Final residual = 0, No Iterations 0
DICPCG:  Solving for Exner, Initial residual = 9.45509e-06, Final residual = 9.26515e-09, No Iterations 15
DICPCG:  Solving for Exner, Initial residual = 2.54989e-08, Final residual = 9.61121e-11, No Iterations 14
diagonal:  Solving for rho, Initial residual = 0, Final residual = 0, No Iterations 0
diagonal:  Solving for theta, Initial residual = 0, Final residual = 0, No Iterations 0
DICPCG:  Solving for Exner, Initial residual = 2.32061e-06, Final residual = 2.09053e-09, No Iterations 15
DICPCG:  Solving for Exner, Initial residual = 2.10591e-09, Final residual = 9.27256e-11, No Iterations 8
diagonal:  Solving for rho, Initial residual = 0, Final residual = 0, No Iterations 0
diagonal:  Solving for theta, Initial residual = 0, Final residual = 0, No Iterations 0
time step continuity errors : sum local = 2.56718e-10, global = -3.1104e-11, cumulative = 7.77394e-10
Maximum rho difference fraction = 3.41549e-08
Heat error = -6.55291e-15
ExecutionTime = 74.98 s  ClockTime = 75 s

Time = 94

Courant Number mean: 0.0037347 max: 0.0585994 max Ndt = 0.0147036
diagonal:  Solving for rho, Initial residual = 0, Final residual = 0, No Iterations 0
diagonal:  Solving for theta, Initial residual = 0, Final residual = 0, No Iterations 0
DICPCG:  Solving for Exner, Initial residual = 8.02078e-06, Final residual = 5.45301e-09, No Iterations 16
DICPCG:  Solving for Exner, Initial residual = 2.22948e-08, Final residual = 8.40513e-11, No Iterations 14
diagonal:  Solving for rho, Initial residual = 0, Final residual = 0, No Iterations 0
diagonal:  Solving for theta, Initial residual = 0, Final residual = 0, No Iterations 0
DICPCG:  Solving for Exner, Initial residual = 2.79268e-06, Final residual = 2.42586e-09, No Iterations 15
DICPCG:  Solving for Exner, Initial residual = 2.44505e-09, Final residual = 6.59834e-11, No Iterations 9
diagonal:  Solving for rho, Initial residual = 0, Final residual = 0, No Iterations 0
diagonal:  Solving for theta, Initial residual = 0, Final residual = 0, No Iterations 0
time step continuity errors : sum local = 2.57891e-10, global = -3.14578e-11, cumulative = 7.45937e-10
Maximum rho difference fraction = 3.00367e-08
Heat error = -9.4362e-15
ExecutionTime = 76.97 s  ClockTime = 77 s

Time = 96

Courant Number mean: 0.0037825 max: 0.0598705 max Ndt = 0.0147272
diagonal:  Solving for rho, Initial residual = 0, Final residual = 0, No Iterations 0
diagonal:  Solving for theta, Initial residual = 0, Final residual = 0, No Iterations 0
DICPCG:  Solving for Exner, Initial residual = 8.30419e-06, Final residual = 6.9331e-09, No Iterations 15
DICPCG:  Solving for Exner, Initial residual = 2.42118e-08, Final residual = 9.3954e-11, No Iterations 14
diagonal:  Solving for rho, Initial residual = 0, Final residual = 0, No Iterations 0
diagonal:  Solving for theta, Initial residual = 0, Final residual = 0, No Iterations 0
DICPCG:  Solving for Exner, Initial residual = 2.96859e-06, Final residual = 2.55922e-09, No Iterations 15
DICPCG:  Solving for Exner, Initial residual = 2.60081e-09, Final residual = 6.87614e-11, No Iterations 9
diagonal:  Solving for rho, Initial residual = 0, Final residual = 0, No Iterations 0
diagonal:  Solving for theta, Initial residual = 0, Final residual = 0, No Iterations 0
time step continuity errors : sum local = 2.6125e-10, global = -3.03001e-11, cumulative = 7.15636e-10
Maximum rho difference fraction = 2.56522e-08
Heat error = -1.31058e-15
ExecutionTime = 78.99 s  ClockTime = 79 s

Time = 98

Courant Number mean: 0.00381923 max: 0.0611448 max Ndt = 0.014751
diagonal:  Solving for rho, Initial residual = 0, Final residual = 0, No Iterations 0
diagonal:  Solving for theta, Initial residual = 0, Final residual = 0, No Iterations 0
DICPCG:  Solving for Exner, Initial residual = 9.33609e-06, Final residual = 7.05158e-09, No Iterations 15
DICPCG:  Solving for Exner, Initial residual = 2.45405e-08, Final residual = 9.07525e-11, No Iterations 14
diagonal:  Solving for rho, Initial residual = 0, Final residual = 0, No Iterations 0
diagonal:  Solving for theta, Initial residual = 0, Final residual = 0, No Iterations 0
DICPCG:  Solving for Exner, Initial residual = 2.63597e-06, Final residual = 2.36072e-09, No Iterations 15
DICPCG:  Solving for Exner, Initial residual = 2.39025e-09, Final residual = 9.67484e-11, No Iterations 8
diagonal:  Solving for rho, Initial residual = 0, Final residual = 0, No Iterations 0
diagonal:  Solving for theta, Initial residual = 0, Final residual = 0, No Iterations 0
time step continuity errors : sum local = 2.5903e-10, global = -2.6864e-11, cumulative = 6.88772e-10
Maximum rho difference fraction = 2.94871e-08
Heat error = 6.68397e-15
ExecutionTime = 81.14 s  ClockTime = 81 s

Time = 100

Courant Number mean: 0.00385431 max: 0.0624138 max Ndt = 0.0147749
diagonal:  Solving for rho, Initial residual = 0, Final residual = 0, No Iterations 0
diagonal:  Solving for theta, Initial residual = 0, Final residual = 0, No Iterations 0
DICPCG:  Solving for Exner, Initial residual = 9.37772e-06, Final residual = 7.99581e-09, No Iterations 15
DICPCG:  Solving for Exner, Initial residual = 2.55678e-08, Final residual = 9.0632e-11, No Iterations 14
diagonal:  Solving for rho, Initial residual = 0, Final residual = 0, No Iterations 0
diagonal:  Solving for theta, Initial residual = 0, Final residual = 0, No Iterations 0
DICPCG:  Solving for Exner, Initial residual = 2.24114e-06, Final residual = 1.58666e-09, No Iterations 16
DICPCG:  Solving for Exner, Initial residual = 1.62795e-09, Final residual = 6.59965e-11, No Iterations 8
diagonal:  Solving for rho, Initial residual = 0, Final residual = 0, No Iterations 0
diagonal:  Solving for theta, Initial residual = 0, Final residual = 0, No Iterations 0
time step continuity errors : sum local = 2.60525e-10, global = -2.60774e-11, cumulative = 6.62695e-10
Maximum rho difference fraction = 3.02735e-08
Heat error = -9.30514e-15
ExecutionTime = 83.31 s  ClockTime = 83 s

Time = 102

Courant Number mean: 0.00389627 max: 0.0636724 max Ndt = 0.0147989
diagonal:  Solving for rho, Initial residual = 0, Final residual = 0, No Iterations 0
diagonal:  Solving for theta, Initial residual = 0, Final residual = 0, No Iterations 0
DICPCG:  Solving for Exner, Initial residual = 8.71615e-06, Final residual = 7.8872e-09, No Iterations 15
DICPCG:  Solving for Exner, Initial residual = 2.56241e-08, Final residual = 8.90924e-11, No Iterations 14
diagonal:  Solving for rho, Initial residual = 0, Final residual = 0, No Iterations 0
diagonal:  Solving for theta, Initial residual = 0, Final residual = 0, No Iterations 0
DICPCG:  Solving for Exner, Initial residual = 2.67054e-06, Final residual = 2.37624e-09, No Iterations 15
DICPCG:  Solving for Exner, Initial residual = 2.42549e-09, Final residual = 9.89823e-11, No Iterations 8
diagonal:  Solving for rho, Initial residual = 0, Final residual = 0, No Iterations 0
diagonal:  Solving for theta, Initial residual = 0, Final residual = 0, No Iterations 0
time step continuity errors : sum local = 2.5757e-10, global = -2.21901e-11, cumulative = 6.40505e-10
Maximum rho difference fraction = 3.23393e-08
Heat error = -7.33926e-15
ExecutionTime = 86.12 s  ClockTime = 86 s

Time = 104

Courant Number mean: 0.00395696 max: 0.0649212 max Ndt = 0.0148228
diagonal:  Solving for rho, Initial residual = 0, Final residual = 0, No Iterations 0
diagonal:  Solving for theta, Initial residual = 0, Final residual = 0, No Iterations 0
DICPCG:  Solving for Exner, Initial residual = 8.84304e-06, Final residual = 8.74133e-09, No Iterations 15
DICPCG:  Solving for Exner, Initial residual = 2.67577e-08, Final residual = 9.68022e-11, No Iterations 14
diagonal:  Solving for rho, Initial residual = 0, Final residual = 0, No Iterations 0
diagonal:  Solving for theta, Initial residual = 0, Final residual = 0, No Iterations 0
DICPCG:  Solving for Exner, Initial residual = 2.95715e-06, Final residual = 2.29374e-09, No Iterations 15
DICPCG:  Solving for Exner, Initial residual = 2.33503e-09, Final residual = 9.7356e-11, No Iterations 8
diagonal:  Solving for rho, Initial residual = 0, Final residual = 0, No Iterations 0
diagonal:  Solving for theta, Initial residual = 0, Final residual = 0, No Iterations 0
time step continuity errors : sum local = 2.65001e-10, global = -1.86705e-11, cumulative = 6.21835e-10
Maximum rho difference fraction = 4.1826e-08
Heat error = -1.04847e-14
ExecutionTime = 88.71 s  ClockTime = 89 s

Time = 106

Courant Number mean: 0.00404225 max: 0.0661651 max Ndt = 0.0148467
diagonal:  Solving for rho, Initial residual = 0, Final residual = 0, No Iterations 0
diagonal:  Solving for theta, Initial residual = 0, Final residual = 0, No Iterations 0
DICPCG:  Solving for Exner, Initial residual = 1.00694e-05, Final residual = 9.88357e-09, No Iterations 15
DICPCG:  Solving for Exner, Initial residual = 2.80314e-08, Final residual = 6.15181e-11, No Iterations 15
diagonal:  Solving for rho, Initial residual = 0, Final residual = 0, No Iterations 0
diagonal:  Solving for theta, Initial residual = 0, Final residual = 0, No Iterations 0
DICPCG:  Solving for Exner, Initial residual = 2.6874e-06, Final residual = 2.31862e-09, No Iterations 15
DICPCG:  Solving for Exner, Initial residual = 2.34907e-09, Final residual = 9.7843e-11, No Iterations 8
diagonal:  Solving for rho, Initial residual = 0, Final residual = 0, No Iterations 0
diagonal:  Solving for theta, Initial residual = 0, Final residual = 0, No Iterations 0
time step continuity errors : sum local = 2.79924e-10, global = -1.93305e-11, cumulative = 6.02504e-10
Maximum rho difference fraction = 4.82162e-08
Heat error = -1.96587e-15
ExecutionTime = 91.22 s  ClockTime = 91 s

Time = 108

Courant Number mean: 0.00414405 max: 0.0674081 max Ndt = 0.0148706
diagonal:  Solving for rho, Initial residual = 0, Final residual = 0, No Iterations 0
diagonal:  Solving for theta, Initial residual = 0, Final residual = 0, No Iterations 0
DICPCG:  Solving for Exner, Initial residual = 1.07068e-05, Final residual = 1.0495e-08, No Iterations 15
DICPCG:  Solving for Exner, Initial residual = 2.89322e-08, Final residual = 6.73406e-11, No Iterations 15
diagonal:  Solving for rho, Initial residual = 0, Final residual = 0, No Iterations 0
diagonal:  Solving for theta, Initial residual = 0, Final residual = 0, No Iterations 0
DICPCG:  Solving for Exner, Initial residual = 2.35877e-06, Final residual = 2.06936e-09, No Iterations 15
DICPCG:  Solving for Exner, Initial residual = 2.11667e-09, Final residual = 9.33608e-11, No Iterations 8
diagonal:  Solving for rho, Initial residual = 0, Final residual = 0, No Iterations 0
diagonal:  Solving for theta, Initial residual = 0, Final residual = 0, No Iterations 0
time step continuity errors : sum local = 2.93045e-10, global = -2.29946e-11, cumulative = 5.79509e-10
Maximum rho difference fraction = 4.97638e-08
Heat error = -1.5727e-15
ExecutionTime = 93.91 s  ClockTime = 94 s

Time = 110

Courant Number mean: 0.00424161 max: 0.0686501 max Ndt = 0.0148943
diagonal:  Solving for rho, Initial residual = 0, Final residual = 0, No Iterations 0
diagonal:  Solving for theta, Initial residual = 0, Final residual = 0, No Iterations 0
DICPCG:  Solving for Exner, Initial residual = 1.01474e-05, Final residual = 6.80401e-09, No Iterations 16
DICPCG:  Solving for Exner, Initial residual = 2.61968e-08, Final residual = 6.6515e-11, No Iterations 15
diagonal:  Solving for rho, Initial residual = 0, Final residual = 0, No Iterations 0
diagonal:  Solving for theta, Initial residual = 0, Final residual = 0, No Iterations 0
DICPCG:  Solving for Exner, Initial residual = 2.33269e-06, Final residual = 2.20384e-09, No Iterations 15
DICPCG:  Solving for Exner, Initial residual = 2.23736e-09, Final residual = 6.52855e-11, No Iterations 9
diagonal:  Solving for rho, Initial residual = 0, Final residual = 0, No Iterations 0
diagonal:  Solving for theta, Initial residual = 0, Final residual = 0, No Iterations 0
time step continuity errors : sum local = 2.9332e-10, global = -2.54449e-11, cumulative = 5.54065e-10
Maximum rho difference fraction = 4.83429e-08
Heat error = -8.25667e-15
ExecutionTime = 96.28 s  ClockTime = 96 s

Time = 112

Courant Number mean: 0.00432124 max: 0.0698865 max Ndt = 0.014918
diagonal:  Solving for rho, Initial residual = 0, Final residual = 0, No Iterations 0
diagonal:  Solving for theta, Initial residual = 0, Final residual = 0, No Iterations 0
DICPCG:  Solving for Exner, Initial residual = 1.00193e-05, Final residual = 9.28792e-09, No Iterations 15
DICPCG:  Solving for Exner, Initial residual = 2.90691e-08, Final residual = 7.4872e-11, No Iterations 15
diagonal:  Solving for rho, Initial residual = 0, Final residual = 0, No Iterations 0
diagonal:  Solving for theta, Initial residual = 0, Final residual = 0, No Iterations 0
DICPCG:  Solving for Exner, Initial residual = 2.74739e-06, Final residual = 2.68468e-09, No Iterations 15
DICPCG:  Solving for Exner, Initial residual = 2.68308e-09, Final residual = 7.90146e-11, No Iterations 9
diagonal:  Solving for rho, Initial residual = 0, Final residual = 0, No Iterations 0
diagonal:  Solving for theta, Initial residual = 0, Final residual = 0, No Iterations 0
time step continuity errors : sum local = 2.97751e-10, global = -2.80513e-11, cumulative = 5.26013e-10
Maximum rho difference fraction = 4.82856e-08
Heat error = -7.33926e-15
ExecutionTime = 98.34 s  ClockTime = 98 s

Time = 114

Courant Number mean: 0.00437911 max: 0.0711112 max Ndt = 0.0149414
diagonal:  Solving for rho, Initial residual = 0, Final residual = 0, No Iterations 0
diagonal:  Solving for theta, Initial residual = 0, Final residual = 0, No Iterations 0
DICPCG:  Solving for Exner, Initial residual = 9.8787e-06, Final residual = 7.30111e-09, No Iterations 16
DICPCG:  Solving for Exner, Initial residual = 2.78046e-08, Final residual = 7.58327e-11, No Iterations 15
diagonal:  Solving for rho, Initial residual = 0, Final residual = 0, No Iterations 0
diagonal:  Solving for theta, Initial residual = 0, Final residual = 0, No Iterations 0
DICPCG:  Solving for Exner, Initial residual = 2.83136e-06, Final residual = 1.92109e-09, No Iterations 16
DICPCG:  Solving for Exner, Initial residual = 1.95472e-09, Final residual = 8.84079e-11, No Iterations 8
diagonal:  Solving for rho, Initial residual = 0, Final residual = 0, No Iterations 0
diagonal:  Solving for theta, Initial residual = 0, Final residual = 0, No Iterations 0
time step continuity errors : sum local = 3.0774e-10, global = -3.25224e-11, cumulative = 4.93491e-10
Maximum rho difference fraction = 5.45093e-08
Heat error = -2.49011e-15
ExecutionTime = 99.99 s  ClockTime = 100 s

Time = 116

Courant Number mean: 0.00444177 max: 0.0723202 max Ndt = 0.0149646
diagonal:  Solving for rho, Initial residual = 0, Final residual = 0, No Iterations 0
diagonal:  Solving for theta, Initial residual = 0, Final residual = 0, No Iterations 0
DICPCG:  Solving for Exner, Initial residual = 1.04571e-05, Final residual = 7.66751e-09, No Iterations 16
DICPCG:  Solving for Exner, Initial residual = 2.85836e-08, Final residual = 7.50014e-11, No Iterations 15
diagonal:  Solving for rho, Initial residual = 0, Final residual = 0, No Iterations 0
diagonal:  Solving for theta, Initial residual = 0, Final residual = 0, No Iterations 0
DICPCG:  Solving for Exner, Initial residual = 2.76697e-06, Final residual = 1.89883e-09, No Iterations 16
DICPCG:  Solving for Exner, Initial residual = 1.95158e-09, Final residual = 9.39198e-11, No Iterations 8
diagonal:  Solving for rho, Initial residual = 0, Final residual = 0, No Iterations 0
diagonal:  Solving for theta, Initial residual = 0, Final residual = 0, No Iterations 0
time step continuity errors : sum local = 3.21345e-10, global = -3.704e-11, cumulative = 4.56451e-10
Maximum rho difference fraction = 5.34845e-08
Heat error = -1.27127e-14
ExecutionTime = 101.69 s  ClockTime = 102 s

Time = 118

Courant Number mean: 0.00450976 max: 0.073514 max Ndt = 0.0149875
diagonal:  Solving for rho, Initial residual = 0, Final residual = 0, No Iterations 0
diagonal:  Solving for theta, Initial residual = 0, Final residual = 0, No Iterations 0
DICPCG:  Solving for Exner, Initial residual = 1.0713e-05, Final residual = 8.03738e-09, No Iterations 16
DICPCG:  Solving for Exner, Initial residual = 2.92204e-08, Final residual = 7.68997e-11, No Iterations 15
diagonal:  Solving for rho, Initial residual = 0, Final residual = 0, No Iterations 0
diagonal:  Solving for theta, Initial residual = 0, Final residual = 0, No Iterations 0
DICPCG:  Solving for Exner, Initial residual = 2.82463e-06, Final residual = 2.13819e-09, No Iterations 16
DICPCG:  Solving for Exner, Initial residual = 2.19711e-09, Final residual = 6.80964e-11, No Iterations 9
diagonal:  Solving for rho, Initial residual = 0, Final residual = 0, No Iterations 0
diagonal:  Solving for theta, Initial residual = 0, Final residual = 0, No Iterations 0
time step continuity errors : sum local = 3.25303e-10, global = -3.9391e-11, cumulative = 4.1706e-10
Maximum rho difference fraction = 5.10296e-08
Heat error = -4.06281e-15
ExecutionTime = 103.73 s  ClockTime = 104 s

Time = 120

Courant Number mean: 0.00458521 max: 0.0747053 max Ndt = 0.01501
diagonal:  Solving for rho, Initial residual = 0, Final residual = 0, No Iterations 0
diagonal:  Solving for theta, Initial residual = 0, Final residual = 0, No Iterations 0
DICPCG:  Solving for Exner, Initial residual = 1.07635e-05, Final residual = 7.99497e-09, No Iterations 16
DICPCG:  Solving for Exner, Initial residual = 2.92443e-08, Final residual = 7.63941e-11, No Iterations 15
diagonal:  Solving for rho, Initial residual = 0, Final residual = 0, No Iterations 0
diagonal:  Solving for theta, Initial residual = 0, Final residual = 0, No Iterations 0
DICPCG:  Solving for Exner, Initial residual = 2.91989e-06, Final residual = 2.42068e-09, No Iterations 16
DICPCG:  Solving for Exner, Initial residual = 2.45676e-09, Final residual = 7.47579e-11, No Iterations 9
diagonal:  Solving for rho, Initial residual = 0, Final residual = 0, No Iterations 0
diagonal:  Solving for theta, Initial residual = 0, Final residual = 0, No Iterations 0
time step continuity errors : sum local = 3.34649e-10, global = -4.2285e-11, cumulative = 3.74775e-10
Maximum rho difference fraction = 4.94877e-08
Heat error = -1.45475e-14
ExecutionTime = 105.88 s  ClockTime = 106 s

Time = 122

Courant Number mean: 0.00466168 max: 0.0759034 max Ndt = 0.0150321
diagonal:  Solving for rho, Initial residual = 0, Final residual = 0, No Iterations 0
diagonal:  Solving for theta, Initial residual = 0, Final residual = 0, No Iterations 0
DICPCG:  Solving for Exner, Initial residual = 1.11465e-05, Final residual = 9.73669e-09, No Iterations 16
DICPCG:  Solving for Exner, Initial residual = 3.12144e-08, Final residual = 8.35634e-11, No Iterations 15
diagonal:  Solving for rho, Initial residual = 0, Final residual = 0, No Iterations 0
diagonal:  Solving for theta, Initial residual = 0, Final residual = 0, No Iterations 0
DICPCG:  Solving for Exner, Initial residual = 2.91253e-06, Final residual = 2.48179e-09, No Iterations 16
DICPCG:  Solving for Exner, Initial residual = 2.49815e-09, Final residual = 7.49704e-11, No Iterations 9
diagonal:  Solving for rho, Initial residual = 0, Final residual = 0, No Iterations 0
diagonal:  Solving for theta, Initial residual = 0, Final residual = 0, No Iterations 0
time step continuity errors : sum local = 3.4722e-10, global = -4.55873e-11, cumulative = 3.29188e-10
Maximum rho difference fraction = 4.84476e-08
Heat error = -3.93175e-15
ExecutionTime = 108.29 s  ClockTime = 108 s

Time = 124

Courant Number mean: 0.00474625 max: 0.0771093 max Ndt = 0.0150537
diagonal:  Solving for rho, Initial residual = 0, Final residual = 0, No Iterations 0
diagonal:  Solving for theta, Initial residual = 0, Final residual = 0, No Iterations 0
DICPCG:  Solving for Exner, Initial residual = 1.14351e-05, Final residual = 1.06003e-08, No Iterations 16
DICPCG:  Solving for Exner, Initial residual = 3.24845e-08, Final residual = 8.31471e-11, No Iterations 15
diagonal:  Solving for rho, Initial residual = 0, Final residual = 0, No Iterations 0
diagonal:  Solving for theta, Initial residual = 0, Final residual = 0, No Iterations 0
DICPCG:  Solving for Exner, Initial residual = 2.90288e-06, Final residual = 2.32401e-09, No Iterations 16
DICPCG:  Solving for Exner, Initial residual = 2.35513e-09, Final residual = 7.09384e-11, No Iterations 9
diagonal:  Solving for rho, Initial residual = 0, Final residual = 0, No Iterations 0
diagonal:  Solving for theta, Initial residual = 0, Final residual = 0, No Iterations 0
time step continuity errors : sum local = 3.59312e-10, global = -4.85583e-11, cumulative = 2.80629e-10
Maximum rho difference fraction = 4.73168e-08
Heat error = -1.70376e-15
ExecutionTime = 110.66 s  ClockTime = 111 s

Time = 126

Courant Number mean: 0.00483212 max: 0.0783314 max Ndt = 0.0150747
diagonal:  Solving for rho, Initial residual = 0, Final residual = 0, No Iterations 0
diagonal:  Solving for theta, Initial residual = 0, Final residual = 0, No Iterations 0
DICPCG:  Solving for Exner, Initial residual = 1.17305e-05, Final residual = 1.06826e-08, No Iterations 16
DICPCG:  Solving for Exner, Initial residual = 3.30012e-08, Final residual = 8.16904e-11, No Iterations 15
diagonal:  Solving for rho, Initial residual = 0, Final residual = 0, No Iterations 0
diagonal:  Solving for theta, Initial residual = 0, Final residual = 0, No Iterations 0
DICPCG:  Solving for Exner, Initial residual = 2.97939e-06, Final residual = 2.02604e-09, No Iterations 16
[...]
Heat error = -7.47032e-15
ExecutionTime = 859.92 s  ClockTime = 860 s

Time = 970

Courant Number mean: 0.0447864 max: 0.333665 max Ndt = 0.0263193
diagonal:  Solving for rho, Initial residual = 0, Final residual = 0, No Iterations 0
diagonal:  Solving for theta, Initial residual = 0, Final residual = 0, No Iterations 0
DICPCG:  Solving for Exner, Initial residual = 9.42823e-06, Final residual = 8.77343e-09, No Iterations 16
DICPCG:  Solving for Exner, Initial residual = 4.51539e-07, Final residual = 4.04119e-10, No Iterations 15
diagonal:  Solving for rho, Initial residual = 0, Final residual = 0, No Iterations 0
diagonal:  Solving for theta, Initial residual = 0, Final residual = 0, No Iterations 0
DICPCG:  Solving for Exner, Initial residual = 1.509e-06, Final residual = 1.38342e-09, No Iterations 16
DICPCG:  Solving for Exner, Initial residual = 9.88967e-09, Final residual = 9.75169e-11, No Iterations 9
diagonal:  Solving for rho, Initial residual = 0, Final residual = 0, No Iterations 0
diagonal:  Solving for theta, Initial residual = 0, Final residual = 0, No Iterations 0
time step continuity errors : sum local = 1.19069e-09, global = 1.90325e-10, cumulative = 1.72657e-08
Maximum rho difference fraction = 4.91733e-08
Heat error = -8.7809e-15
ExecutionTime = 861.46 s  ClockTime = 862 s

Time = 972

Courant Number mean: 0.0448815 max: 0.33324 max Ndt = 0.026303
diagonal:  Solving for rho, Initial residual = 0, Final residual = 0, No Iterations 0
diagonal:  Solving for theta, Initial residual = 0, Final residual = 0, No Iterations 0
DICPCG:  Solving for Exner, Initial residual = 9.8976e-06, Final residual = 9.06334e-09, No Iterations 16
DICPCG:  Solving for Exner, Initial residual = 4.5204e-07, Final residual = 4.07205e-10, No Iterations 15
diagonal:  Solving for rho, Initial residual = 0, Final residual = 0, No Iterations 0
diagonal:  Solving for theta, Initial residual = 0, Final residual = 0, No Iterations 0
DICPCG:  Solving for Exner, Initial residual = 1.21896e-06, Final residual = 1.1757e-09, No Iterations 16
DICPCG:  Solving for Exner, Initial residual = 9.72885e-09, Final residual = 9.87507e-11, No Iterations 9
diagonal:  Solving for rho, Initial residual = 0, Final residual = 0, No Iterations 0
diagonal:  Solving for theta, Initial residual = 0, Final residual = 0, No Iterations 0
time step continuity errors : sum local = 1.18884e-09, global = 1.75639e-10, cumulative = 1.74414e-08
Maximum rho difference fraction = 5.17222e-08
Heat error = 3.27646e-15
ExecutionTime = 862.94 s  ClockTime = 863 s

Time = 974

Courant Number mean: 0.0449736 max: 0.332693 max Ndt = 0.0262405
diagonal:  Solving for rho, Initial residual = 0, Final residual = 0, No Iterations 0
diagonal:  Solving for theta, Initial residual = 0, Final residual = 0, No Iterations 0
DICPCG:  Solving for Exner, Initial residual = 9.71641e-06, Final residual = 8.77871e-09, No Iterations 16
DICPCG:  Solving for Exner, Initial residual = 4.51737e-07, Final residual = 4.03877e-10, No Iterations 15
diagonal:  Solving for rho, Initial residual = 0, Final residual = 0, No Iterations 0
diagonal:  Solving for theta, Initial residual = 0, Final residual = 0, No Iterations 0
DICPCG:  Solving for Exner, Initial residual = 1.07768e-06, Final residual = 8.0571e-10, No Iterations 17
DICPCG:  Solving for Exner, Initial residual = 9.43401e-09, Final residual = 7.59699e-11, No Iterations 9
diagonal:  Solving for rho, Initial residual = 0, Final residual = 0, No Iterations 0
diagonal:  Solving for theta, Initial residual = 0, Final residual = 0, No Iterations 0
time step continuity errors : sum local = 1.18849e-09, global = 1.6873e-10, cumulative = 1.76101e-08
Maximum rho difference fraction = 5.06966e-08
Heat error = -1.23195e-14
ExecutionTime = 864.45 s  ClockTime = 865 s

Time = 976

Courant Number mean: 0.0450632 max: 0.332032 max Ndt = 0.0262508
diagonal:  Solving for rho, Initial residual = 0, Final residual = 0, No Iterations 0
diagonal:  Solving for theta, Initial residual = 0, Final residual = 0, No Iterations 0
DICPCG:  Solving for Exner, Initial residual = 8.71514e-06, Final residual = 8.04293e-09, No Iterations 16
DICPCG:  Solving for Exner, Initial residual = 4.50767e-07, Final residual = 3.96247e-10, No Iterations 15
diagonal:  Solving for rho, Initial residual = 0, Final residual = 0, No Iterations 0
diagonal:  Solving for theta, Initial residual = 0, Final residual = 0, No Iterations 0
DICPCG:  Solving for Exner, Initial residual = 1.37366e-06, Final residual = 9.64714e-10, No Iterations 17
DICPCG:  Solving for Exner, Initial residual = 9.54646e-09, Final residual = 8.13785e-11, No Iterations 9
diagonal:  Solving for rho, Initial residual = 0, Final residual = 0, No Iterations 0
diagonal:  Solving for theta, Initial residual = 0, Final residual = 0, No Iterations 0
time step continuity errors : sum local = 1.19023e-09, global = 1.65124e-10, cumulative = 1.77752e-08
Maximum rho difference fraction = 5.02626e-08
Heat error = -6.02868e-15
ExecutionTime = 865.9 s  ClockTime = 866 s

Time = 978

Courant Number mean: 0.0451536 max: 0.331265 max Ndt = 0.0262717
diagonal:  Solving for rho, Initial residual = 0, Final residual = 0, No Iterations 0
diagonal:  Solving for theta, Initial residual = 0, Final residual = 0, No Iterations 0
DICPCG:  Solving for Exner, Initial residual = 7.20786e-06, Final residual = 6.88456e-09, No Iterations 16
DICPCG:  Solving for Exner, Initial residual = 4.49477e-07, Final residual = 3.87317e-10, No Iterations 15
diagonal:  Solving for rho, Initial residual = 0, Final residual = 0, No Iterations 0
diagonal:  Solving for theta, Initial residual = 0, Final residual = 0, No Iterations 0
DICPCG:  Solving for Exner, Initial residual = 1.75248e-06, Final residual = 1.16374e-09, No Iterations 17
DICPCG:  Solving for Exner, Initial residual = 9.71076e-09, Final residual = 8.89654e-11, No Iterations 9
diagonal:  Solving for rho, Initial residual = 0, Final residual = 0, No Iterations 0
diagonal:  Solving for theta, Initial residual = 0, Final residual = 0, No Iterations 0
time step continuity errors : sum local = 1.19371e-09, global = 1.6392e-10, cumulative = 1.79392e-08
Maximum rho difference fraction = 5.05091e-08
Heat error = -1.58581e-14
ExecutionTime = 867.38 s  ClockTime = 867 s

Time = 980

Courant Number mean: 0.0452458 max: 0.330402 max Ndt = 0.0262211
diagonal:  Solving for rho, Initial residual = 0, Final residual = 0, No Iterations 0
diagonal:  Solving for theta, Initial residual = 0, Final residual = 0, No Iterations 0
DICPCG:  Solving for Exner, Initial residual = 5.60332e-06, Final residual = 3.70837e-09, No Iterations 17
DICPCG:  Solving for Exner, Initial residual = 4.4769e-07, Final residual = 3.77079e-10, No Iterations 15
diagonal:  Solving for rho, Initial residual = 0, Final residual = 0, No Iterations 0
diagonal:  Solving for theta, Initial residual = 0, Final residual = 0, No Iterations 0
DICPCG:  Solving for Exner, Initial residual = 2.01222e-06, Final residual = 1.28808e-09, No Iterations 17
DICPCG:  Solving for Exner, Initial residual = 9.8084e-09, Final residual = 9.17551e-11, No Iterations 9
diagonal:  Solving for rho, Initial residual = 0, Final residual = 0, No Iterations 0
diagonal:  Solving for theta, Initial residual = 0, Final residual = 0, No Iterations 0
time step continuity errors : sum local = 1.19848e-09, global = 1.63184e-10, cumulative = 1.81023e-08
Maximum rho difference fraction = 5.09543e-08
Heat error = 5.89762e-15
ExecutionTime = 868.92 s  ClockTime = 869 s

Time = 982

Courant Number mean: 0.0453409 max: 0.32945 max Ndt = 0.0262246
diagonal:  Solving for rho, Initial residual = 0, Final residual = 0, No Iterations 0
diagonal:  Solving for theta, Initial residual = 0, Final residual = 0, No Iterations 0
DICPCG:  Solving for Exner, Initial residual = 5.58091e-06, Final residual = 5.32935e-09, No Iterations 16
DICPCG:  Solving for Exner, Initial residual = 4.48945e-07, Final residual = 3.95641e-10, No Iterations 15
diagonal:  Solving for rho, Initial residual = 0, Final residual = 0, No Iterations 0
diagonal:  Solving for theta, Initial residual = 0, Final residual = 0, No Iterations 0
DICPCG:  Solving for Exner, Initial residual = 2.13728e-06, Final residual = 2.11545e-09, No Iterations 16
DICPCG:  Solving for Exner, Initial residual = 1.05114e-08, Final residual = 7.85532e-11, No Iterations 10
diagonal:  Solving for rho, Initial residual = 0, Final residual = 0, No Iterations 0
diagonal:  Solving for theta, Initial residual = 0, Final residual = 0, No Iterations 0
time step continuity errors : sum local = 1.19442e-09, global = 1.63866e-10, cumulative = 1.82662e-08
Maximum rho difference fraction = 5.09091e-08
Heat error = -1.52028e-14
ExecutionTime = 870.69 s  ClockTime = 871 s

Time = 984

Courant Number mean: 0.0454388 max: 0.329456 max Ndt = 0.0261914
diagonal:  Solving for rho, Initial residual = 0, Final residual = 0, No Iterations 0
diagonal:  Solving for theta, Initial residual = 0, Final residual = 0, No Iterations 0
DICPCG:  Solving for Exner, Initial residual = 6.64208e-06, Final residual = 4.76818e-09, No Iterations 16
DICPCG:  Solving for Exner, Initial residual = 4.48619e-07, Final residual = 3.89401e-10, No Iterations 15
diagonal:  Solving for rho, Initial residual = 0, Final residual = 0, No Iterations 0
diagonal:  Solving for theta, Initial residual = 0, Final residual = 0, No Iterations 0
DICPCG:  Solving for Exner, Initial residual = 2.1354e-06, Final residual = 1.43595e-09, No Iterations 17
DICPCG:  Solving for Exner, Initial residual = 9.95311e-09, Final residual = 9.07082e-11, No Iterations 9
diagonal:  Solving for rho, Initial residual = 0, Final residual = 0, No Iterations 0
diagonal:  Solving for theta, Initial residual = 0, Final residual = 0, No Iterations 0
time step continuity errors : sum local = 1.19964e-09, global = 1.60705e-10, cumulative = 1.84269e-08
Maximum rho difference fraction = 5.03412e-08
Heat error = -4.58704e-15
ExecutionTime = 872.47 s  ClockTime = 873 s

Time = 986

Courant Number mean: 0.0455405 max: 0.329513 max Ndt = 0.0262117
diagonal:  Solving for rho, Initial residual = 0, Final residual = 0, No Iterations 0
diagonal:  Solving for theta, Initial residual = 0, Final residual = 0, No Iterations 0
DICPCG:  Solving for Exner, Initial residual = 7.79434e-06, Final residual = 5.61278e-09, No Iterations 16
DICPCG:  Solving for Exner, Initial residual = 4.49578e-07, Final residual = 3.79255e-10, No Iterations 15
diagonal:  Solving for rho, Initial residual = 0, Final residual = 0, No Iterations 0
diagonal:  Solving for theta, Initial residual = 0, Final residual = 0, No Iterations 0
DICPCG:  Solving for Exner, Initial residual = 1.97543e-06, Final residual = 1.3952e-09, No Iterations 17
DICPCG:  Solving for Exner, Initial residual = 9.90637e-09, Final residual = 8.41975e-11, No Iterations 9
diagonal:  Solving for rho, Initial residual = 0, Final residual = 0, No Iterations 0
diagonal:  Solving for theta, Initial residual = 0, Final residual = 0, No Iterations 0
time step continuity errors : sum local = 1.20349e-09, global = 1.54695e-10, cumulative = 1.85816e-08
Maximum rho difference fraction = 5.03891e-08
Heat error = 8.64985e-15
ExecutionTime = 874.06 s  ClockTime = 874 s

Time = 988

Courant Number mean: 0.0456452 max: 0.329483 max Ndt = 0.0261974
diagonal:  Solving for rho, Initial residual = 0, Final residual = 0, No Iterations 0
diagonal:  Solving for theta, Initial residual = 0, Final residual = 0, No Iterations 0
DICPCG:  Solving for Exner, Initial residual = 8.5799e-06, Final residual = 7.11335e-09, No Iterations 16
DICPCG:  Solving for Exner, Initial residual = 4.50989e-07, Final residual = 3.76543e-10, No Iterations 15
diagonal:  Solving for rho, Initial residual = 0, Final residual = 0, No Iterations 0
diagonal:  Solving for theta, Initial residual = 0, Final residual = 0, No Iterations 0
DICPCG:  Solving for Exner, Initial residual = 1.67159e-06, Final residual = 1.29863e-09, No Iterations 17
DICPCG:  Solving for Exner, Initial residual = 9.80232e-09, Final residual = 8.22138e-11, No Iterations 9
diagonal:  Solving for rho, Initial residual = 0, Final residual = 0, No Iterations 0
diagonal:  Solving for theta, Initial residual = 0, Final residual = 0, No Iterations 0
time step continuity errors : sum local = 1.20303e-09, global = 1.45255e-10, cumulative = 1.87269e-08
Maximum rho difference fraction = 5.11772e-08
Heat error = 1.04847e-15
ExecutionTime = 875.56 s  ClockTime = 876 s

Time = 990

Courant Number mean: 0.0457526 max: 0.329373 max Ndt = 0.0261266
diagonal:  Solving for rho, Initial residual = 0, Final residual = 0, No Iterations 0
diagonal:  Solving for theta, Initial residual = 0, Final residual = 0, No Iterations 0
DICPCG:  Solving for Exner, Initial residual = 8.90461e-06, Final residual = 8.07462e-09, No Iterations 16
DICPCG:  Solving for Exner, Initial residual = 4.52166e-07, Final residual = 3.7503e-10, No Iterations 15
diagonal:  Solving for rho, Initial residual = 0, Final residual = 0, No Iterations 0
diagonal:  Solving for theta, Initial residual = 0, Final residual = 0, No Iterations 0
DICPCG:  Solving for Exner, Initial residual = 1.47544e-06, Final residual = 1.2687e-09, No Iterations 17
DICPCG:  Solving for Exner, Initial residual = 9.73848e-09, Final residual = 8.85985e-11, No Iterations 9
diagonal:  Solving for rho, Initial residual = 0, Final residual = 0, No Iterations 0
diagonal:  Solving for theta, Initial residual = 0, Final residual = 0, No Iterations 0
time step continuity errors : sum local = 1.20042e-09, global = 1.36517e-10, cumulative = 1.88634e-08
Maximum rho difference fraction = 5.29799e-08
Heat error = 3.66963e-15
ExecutionTime = 877.04 s  ClockTime = 877 s

Time = 992

Courant Number mean: 0.0458606 max: 0.329189 max Ndt = 0.0261396
diagonal:  Solving for rho, Initial residual = 0, Final residual = 0, No Iterations 0
diagonal:  Solving for theta, Initial residual = 0, Final residual = 0, No Iterations 0
DICPCG:  Solving for Exner, Initial residual = 8.87052e-06, Final residual = 8.07215e-09, No Iterations 16
DICPCG:  Solving for Exner, Initial residual = 4.52445e-07, Final residual = 3.74177e-10, No Iterations 15
diagonal:  Solving for rho, Initial residual = 0, Final residual = 0, No Iterations 0
diagonal:  Solving for theta, Initial residual = 0, Final residual = 0, No Iterations 0
DICPCG:  Solving for Exner, Initial residual = 1.49683e-06, Final residual = 1.20622e-09, No Iterations 17
DICPCG:  Solving for Exner, Initial residual = 9.67778e-09, Final residual = 9.35814e-11, No Iterations 9
diagonal:  Solving for rho, Initial residual = 0, Final residual = 0, No Iterations 0
diagonal:  Solving for theta, Initial residual = 0, Final residual = 0, No Iterations 0
time step continuity errors : sum local = 1.19847e-09, global = 1.29591e-10, cumulative = 1.8993e-08
Maximum rho difference fraction = 5.59278e-08
Heat error = -8.51879e-15
ExecutionTime = 878.53 s  ClockTime = 879 s

Time = 994

Courant Number mean: 0.0459682 max: 0.328941 max Ndt = 0.0261566
diagonal:  Solving for rho, Initial residual = 0, Final residual = 0, No Iterations 0
diagonal:  Solving for theta, Initial residual = 0, Final residual = 0, No Iterations 0
DICPCG:  Solving for Exner, Initial residual = 8.45835e-06, Final residual = 7.72625e-09, No Iterations 16
DICPCG:  Solving for Exner, Initial residual = 4.52331e-07, Final residual = 3.72137e-10, No Iterations 15
diagonal:  Solving for rho, Initial residual = 0, Final residual = 0, No Iterations 0
diagonal:  Solving for theta, Initial residual = 0, Final residual = 0, No Iterations 0
DICPCG:  Solving for Exner, Initial residual = 1.69857e-06, Final residual = 1.63843e-09, No Iterations 16
DICPCG:  Solving for Exner, Initial residual = 1.01012e-08, Final residual = 7.52318e-11, No Iterations 10
diagonal:  Solving for rho, Initial residual = 0, Final residual = 0, No Iterations 0
diagonal:  Solving for theta, Initial residual = 0, Final residual = 0, No Iterations 0
time step continuity errors : sum local = 1.19386e-09, global = 1.28676e-10, cumulative = 1.91217e-08
Maximum rho difference fraction = 6.01763e-08
Heat error = 3.01434e-15
ExecutionTime = 880.09 s  ClockTime = 880 s

Time = 996

Courant Number mean: 0.0460744 max: 0.328633 max Ndt = 0.0261236
diagonal:  Solving for rho, Initial residual = 0, Final residual = 0, No Iterations 0
diagonal:  Solving for theta, Initial residual = 0, Final residual = 0, No Iterations 0
DICPCG:  Solving for Exner, Initial residual = 8.17871e-06, Final residual = 7.45275e-09, No Iterations 16
DICPCG:  Solving for Exner, Initial residual = 4.52288e-07, Final residual = 3.68422e-10, No Iterations 15
diagonal:  Solving for rho, Initial residual = 0, Final residual = 0, No Iterations 0
diagonal:  Solving for theta, Initial residual = 0, Final residual = 0, No Iterations 0
DICPCG:  Solving for Exner, Initial residual = 1.87493e-06, Final residual = 1.6348e-09, No Iterations 16
DICPCG:  Solving for Exner, Initial residual = 1.01416e-08, Final residual = 7.35729e-11, No Iterations 10
diagonal:  Solving for rho, Initial residual = 0, Final residual = 0, No Iterations 0
diagonal:  Solving for theta, Initial residual = 0, Final residual = 0, No Iterations 0
time step continuity errors : sum local = 1.19115e-09, global = 1.28812e-10, cumulative = 1.92505e-08
Maximum rho difference fraction = 5.99172e-08
Heat error = -3.80069e-15
ExecutionTime = 881.78 s  ClockTime = 882 s

Time = 998

Courant Number mean: 0.0461787 max: 0.32827 max Ndt = 0.0261158
diagonal:  Solving for rho, Initial residual = 0, Final residual = 0, No Iterations 0
diagonal:  Solving for theta, Initial residual = 0, Final residual = 0, No Iterations 0
DICPCG:  Solving for Exner, Initial residual = 7.94869e-06, Final residual = 7.39769e-09, No Iterations 16
DICPCG:  Solving for Exner, Initial residual = 4.52475e-07, Final residual = 3.65523e-10, No Iterations 15
diagonal:  Solving for rho, Initial residual = 0, Final residual = 0, No Iterations 0
diagonal:  Solving for theta, Initial residual = 0, Final residual = 0, No Iterations 0
DICPCG:  Solving for Exner, Initial residual = 1.89596e-06, Final residual = 1.43535e-09, No Iterations 16
DICPCG:  Solving for Exner, Initial residual = 9.99171e-09, Final residual = 9.29873e-11, No Iterations 9
diagonal:  Solving for rho, Initial residual = 0, Final residual = 0, No Iterations 0
diagonal:  Solving for theta, Initial residual = 0, Final residual = 0, No Iterations 0
time step continuity errors : sum local = 1.19916e-09, global = 1.39333e-10, cumulative = 1.93898e-08
Maximum rho difference fraction = 6.26548e-08
Heat error = -1.3499e-14
ExecutionTime = 883.68 s  ClockTime = 884 s

Time = 1000

Courant Number mean: 0.0462822 max: 0.327852 max Ndt = 0.0260704
diagonal:  Solving for rho, Initial residual = 0, Final residual = 0, No Iterations 0
diagonal:  Solving for theta, Initial residual = 0, Final residual = 0, No Iterations 0
DICPCG:  Solving for Exner, Initial residual = 8.02761e-06, Final residual = 7.84353e-09, No Iterations 16
DICPCG:  Solving for Exner, Initial residual = 4.54129e-07, Final residual = 3.66383e-10, No Iterations 15
diagonal:  Solving for rho, Initial residual = 0, Final residual = 0, No Iterations 0
diagonal:  Solving for theta, Initial residual = 0, Final residual = 0, No Iterations 0
DICPCG:  Solving for Exner, Initial residual = 1.74188e-06, Final residual = 1.67017e-09, No Iterations 16
DICPCG:  Solving for Exner, Initial residual = 1.02026e-08, Final residual = 7.2705e-11, No Iterations 10
diagonal:  Solving for rho, Initial residual = 0, Final residual = 0, No Iterations 0
diagonal:  Solving for theta, Initial residual = 0, Final residual = 0, No Iterations 0
time step continuity errors : sum local = 1.198e-09, global = 1.46109e-10, cumulative = 1.95359e-08
Maximum rho difference fraction = 6.011e-08
Heat error = -3.27646e-15
ExecutionTime = 885.25 s  ClockTime = 885 s

End

